version 2
run General-0-20220601-20:33:04-2348
attr configname General
attr datetime 20220601-20:33:04
attr experiment General
attr inifile omnetpp.ini
attr iterationvars $0=30
attr iterationvarsf 30-
attr measurement $0=30
attr network Lab3
attr processid 2348
attr repetition 0
attr replication #0
attr resultdir results
attr runnumber 0
attr seedset 0
param **.num_of_hosts 10
param **.test_ip_msgs 30
param **.next_event_par 1.0/0.5
param **.pck_len_mean 1000
param **.pck_len_stddev 150
param **.pck_len_min 26
param **.pck_len_max 1480
param **.host[*].eth.arp_ttl 100000s
param **.aging_time 1s

vector 0 Lab3.host[0].eth interarrivalTime:vector ETV
attr interpolationmode none
0	163	0.970440807443	0.970440807443
0	191	1.00015696	0.029716152557
0	194	1.00023608	7.912e-005
0	197	1.000316	7.992e-005
0	200	1.0004108	9.48e-005
0	203	1.00051424	0.00010344
0	211	1.102293293341	0.101779053341
0	239	2.00012128	0.897827986659
0	242	2.00019064	6.936e-005
0	245	2.00027496	8.432e-005
0	248	2.00036064	8.568e-005
0	251	2.00045552	9.488e-005
0	280	3.00012304	0.99966752
0	283	3.00019968	7.664e-005
0	286	3.00028	8.032e-005
0	289	3.00037144	9.144e-005
0	292	3.00046704	9.56e-005
0	300	3.903256111769	0.902789071769
0	328	4.00016096	0.096904848231
0	331	4.00024528	8.432e-005
0	334	4.00032968	8.44e-005
0	337	4.00042104	9.136e-005
0	340	4.00051288	9.184e-005
0	348	4.447186764073	0.446673884073
0	356	4.587136455993	0.13994969192
0	384	5.00014272	0.413006264007
0	387	5.00021568	7.296e-005
0	390	5.00030136	8.568e-005
0	393	5.00039344	9.208e-005
0	396	5.00049008	9.664e-005

