version 2
run General-1-20220822-11:45:07-19784
attr configname General
attr datetime 20220822-11:45:07
attr experiment General
attr inifile omnetpp.ini
attr iterationvars $0=500
attr iterationvarsf 500-
attr measurement $0=500
attr network Lab3
attr processid 19784
attr repetition 0
attr replication #0
attr resultdir results
attr runnumber 1
attr seedset 1
param **.num_of_hosts 10
param **.test_ip_msgs 500
param **.next_event_par 1.0/0.5
param **.pck_len_mean 1000
param **.pck_len_stddev 150
param **.pck_len_min 26
param **.pck_len_max 1480
param **.host[*].eth.arp_ttl 100000s
param **.aging_time 1s

vector 0 Lab3.host[0].eth interarrivalTime:vector ETV
attr interpolationmode none
0	163	0.274399081186	0.274399081186
0	171	0.317576794453	0.043177713267
0	179	0.795965821064	0.478389026611
0	187	0.848088317615	0.052122496551
0	215	1.0001464	0.152058082385
0	218	1.00022608	7.968e-005
0	221	1.00031416	8.808e-005
0	224	1.0004048	9.064e-005
0	227	1.00050504	0.00010024
0	235	1.010469861349	0.009964821349
0	243	1.150686152959	0.14021629161
0	251	1.328464730141	0.177778577182
0	259	1.966229747105	0.637765016964
0	287	2.00013488	0.033905132895
0	290	2.00020432	6.944e-005
0	293	2.00028304	7.872e-005
0	296	2.0003792	9.616e-005
0	299	2.00047808	9.888e-005
0	307	2.01805048308	0.01757240308
0	315	2.324648411794	0.306597928714
0	323	2.537767511553	0.213119099759
0	332	2.607252151677	0.069484640124
0	360	3.00015424	0.392902088323
0	363	3.00023384	7.96e-005
0	366	3.0003152	8.136e-005
0	369	3.00039992	8.472e-005
0	372	3.00048824	8.832e-005
0	400	4.00015088	0.99966264
0	403	4.00023096	8.008e-005
0	406	4.00031664	8.568e-005
0	409	4.00040952	9.288e-005
0	412	4.0005056	9.608e-005
0	440	5.00014288	0.99963728
0	443	5.00022184	7.896e-005
0	446	5.0003012	7.936e-005
0	449	5.00038912	8.792e-005
0	452	5.00048568	9.656e-005
0	460	5.015682335501	0.015196655501
0	468	5.923741309791	0.90805897429
0	496	6.00013776	0.076396450209
0	499	6.00020728	6.952e-005
0	502	6.0002788	7.152e-005
0	505	6.00035744	7.864e-005
0	508	6.000446	8.856e-005
0	516	6.176050436366	0.175604436366
0	524	6.919254905937	0.743204469571
0	552	7.00014992	0.080895014063
0	555	7.00022896	7.904e-005
0	558	7.00032024	9.128e-005
0	561	7.00042184	0.0001016
0	564	7.00052384	0.000102
0	572	7.703556471131	0.703032631131
0	600	8.00012768	0.296571208869
0	603	8.0001936	6.592e-005
0	606	8.00026344	6.984e-005
0	609	8.00033496	7.152e-005
0	612	8.0004124	7.744e-005
0	640	9.00013728	0.99972488
0	643	9.00020672	6.944e-005
0	646	9.00027824	7.152e-005
0	649	9.00035064	7.24e-005
0	652	9.00044576	9.512e-005
0	660	9.076496245109	0.076050485109
0	668	9.099310468973	0.022814223864
0	676	9.705736993216	0.606426524243
0	704	10.00014272	0.294405726784
0	707	10.00022016	7.744e-005
0	710	10.0003008	8.064e-005
0	713	10.00038592	8.512e-005
0	716	10.00048752	0.0001016
0	744	11.0001152	0.99962768
0	747	11.00017832	6.312e-005
0	750	11.00025	7.168e-005
0	753	11.00033248	8.248e-005
0	756	11.0004308	9.832e-005
0	764	11.601922288384	0.601491488384
0	772	11.894332604099	0.292410315715
0	800	12.000132	0.105799395901
0	803	12.00019896	6.696e-005
0	806	12.00026872	6.976e-005
0	809	12.00035152	8.28e-005
0	812	12.00044448	9.296e-005

