version 2
run General-0-20220601-20:31:40-11904
attr configname General
attr datetime 20220601-20:31:40
attr experiment General
attr inifile omnetpp.ini
attr iterationvars $0=30
attr iterationvarsf 30-
attr measurement $0=30
attr network Lab3
attr processid 11904
attr repetition 0
attr replication #0
attr resultdir results
attr runnumber 0
attr seedset 0
param **.num_of_hosts 10
param **.test_ip_msgs 30
param **.next_event_par 1.0/0.5
param **.pck_len_mean 1000
param **.pck_len_stddev 150
param **.pck_len_min 26
param **.pck_len_max 1480
param **.host[*].eth.arp_ttl 100000s
param **.aging_time 1s

vector 0 Lab3.host[0].eth interarrivalTime:vector ETV
attr interpolationmode none
0	163	0.636869241684	0.636869241684
0	171	0.677738018482	0.040868776798
0	179	0.823345592485	0.145607574003
0	187	0.970467527443	0.147121934958
0	195	1.102273613341	0.131806085898
0	203	1.307933774442	0.205660161101
0	211	2.253835632799	0.945901858357
0	219	2.340138772594	0.086303139795
0	228	3.137958475246	0.797819702652
0	236	3.579796297862	0.441837822616
0	244	3.881795609529	0.301999311667
0	252	3.903216111769	0.02142050224
0	260	4.296722101497	0.393505989728
0	268	4.334622919899	0.037900818402
0	276	4.391356453242	0.056733533343
0	284	4.447234284073	0.055877830831
0	292	4.613575458758	0.166341174685
0	300	4.658881178791	0.045305720033
0	308	4.863225701924	0.204344523133
0	316	4.903915868369	0.040690166445
0	324	4.987443162857	0.083527294488
0	332	5.196686891698	0.209243728841
0	340	5.459823295022	0.263136403324
0	348	5.50462764886	0.044804353838
0	356	5.582996041686	0.078368392826
0	364	6.310495287978	0.727499246292
0	372	6.364032855471	0.053537567493
0	380	6.715825866322	0.351793010851
0	388	6.858282221032	0.14245635471
0	396	6.978067315834	0.119785094802

