version 2
run General-1-20220601-20:32:29-21200
attr configname General
attr datetime 20220601-20:32:29
attr experiment General
attr inifile omnetpp.ini
attr iterationvars $0=500
attr iterationvarsf 500-
attr measurement $0=500
attr network Lab3
attr processid 21200
attr repetition 0
attr replication #0
attr resultdir results
attr runnumber 1
attr seedset 1
param **.num_of_hosts 10
param **.test_ip_msgs 500
param **.next_event_par 1.0/0.5
param **.pck_len_mean 1000
param **.pck_len_stddev 150
param **.pck_len_min 26
param **.pck_len_max 1480
param **.host[*].eth.arp_ttl 100000s
param **.aging_time 1s

vector 0 Lab3.host[0].eth interarrivalTime:vector ETV
attr interpolationmode none
0	163	0.274410921186	0.274410921186
0	171	0.317557594453	0.043146673267
0	179	0.848128317615	0.530570723162
0	187	1.010462181349	0.162333863734
0	195	1.086862437252	0.076400255903
0	203	1.289658751384	0.202796314132
0	211	1.354594780763	0.064936029379
0	219	1.444311577136	0.089716796373
0	227	1.487141461356	0.04282988422
0	235	1.529085624902	0.041944163546
0	243	1.838910082081	0.309824457179
0	251	1.859427719273	0.020517637192
0	260	2.749927441654	0.890499722381
0	268	2.920720451396	0.170793009742
0	276	2.932204106255	0.011483654859
0	284	3.22733534011	0.295131233855
0	292	3.296819980234	0.069484640124
0	300	3.5278031637	0.230983183466
0	308	3.749589366769	0.221786203069
0	316	4.209571232554	0.459981865785
0	324	4.236833238446	0.027262005892
0	332	4.361944038671	0.125110800225
0	340	4.98354007838	0.621596039709
0	348	5.104460143492	0.120920065112
0	356	5.262146690308	0.157686546816
0	364	5.279080768938	0.01693407863
0	372	5.483531071345	0.204450302407
0	380	5.593205578794	0.109674507449
0	388	5.737699170705	0.144493591911
0	396	5.854668279191	0.116969108486
0	404	5.989370404414	0.134702125223
0	412	6.380022766349	0.390652361935
0	420	6.531259884252	0.151237117903
0	428	6.633732814018	0.102472929766
0	436	6.726607253576	0.092874439558
0	444	6.864091510026	0.13748425645
0	452	6.924583920119	0.060492410093
0	460	7.058462871182	0.133878951063
0	468	7.49675974923	0.438296878048
0	476	7.517478972045	0.020719222815
0	484	7.738758253732	0.221279281687
0	492	8.173327113488	0.434568859756
0	500	8.246760256953	0.073433143465
0	508	9.021789351494	0.775029094541
0	516	9.035662518506	0.013873167012
0	524	9.063704698488	0.028042179982
0	532	9.865965030593	0.802260332105
0	540	10.790902629731	0.924937599138
0	548	10.836087751948	0.045185122217
0	556	11.365446083329	0.529358331381
0	564	11.518782202165	0.153336118836
0	572	11.598944760355	0.08016255819
0	580	11.815854585256	0.216909824901
0	588	11.945077549443	0.129222964187
0	596	12.291476676941	0.346399127498
0	604	12.476945922942	0.185469246001
0	612	12.864803702952	0.38785778001
0	620	12.987309473998	0.122505771046
0	628	13.005425499558	0.01811602556
0	636	13.01401513497	0.008589635412
0	644	13.655716611331	0.641701476361
0	652	13.687662156568	0.031945545237
0	660	13.889463613392	0.201801456824
0	668	13.996601637692	0.1071380243
0	676	14.390518020676	0.393916382984
0	684	14.823786360296	0.43326833962
0	692	15.053956613251	0.230170252955
0	700	15.275716317441	0.22175970419
0	708	15.440290828943	0.164574511502
0	716	15.74355956881	0.303268739867
0	724	15.90686362181	0.163304053
0	732	15.95999989811	0.0531362763
0	740	16.072210955541	0.112211057431
0	748	16.12167645088	0.049465495339
0	756	16.649027759953	0.527351309073
0	764	17.251585090464	0.602557330511
0	772	17.385930409014	0.13434531855
0	780	17.489948620694	0.10401821168
0	788	17.783711424291	0.293762803597
0	796	17.821392509933	0.037681085642
0	804	17.870729701803	0.04933719187
0	812	17.926505887042	0.055776185239
0	820	18.505684070519	0.579178183477
0	828	18.572211453319	0.0665273828
0	836	19.03994708475	0.467735631431
0	844	19.148540160355	0.108593075605
0	852	19.163537502595	0.01499734224
0	860	19.390981864175	0.22744436158
0	868	19.690842211846	0.299860347671
0	876	19.78463933364	0.093797121794
0	884	20.004819040863	0.220179707223
0	892	20.062578392678	0.057759351815
0	900	20.339723984691	0.277145592013
0	908	20.704787152687	0.365063167996
0	916	20.921299916885	0.216512764198
0	924	21.057374486263	0.136074569378
0	932	21.159973867965	0.102599381702
0	940	21.161933604253	0.001959736288
0	948	21.255410099728	0.093476495475
0	956	21.30694305505	0.051532955322
0	964	21.331477751709	0.024534696659
0	972	21.476662601216	0.145184849507
0	980	21.619168682486	0.14250608127
0	988	21.708438816965	0.089270134479
0	996	22.662823437171	0.954384620206
0	1004	23.226272198098	0.563448760927
0	1012	23.301777634585	0.075505436487
0	1020	24.155702362249	0.853924727664
0	1028	24.396569000149	0.2408666379
0	1036	24.533803156697	0.137234156548
0	1044	24.648074150449	0.114270993752
0	1052	24.68382274372	0.035748593271
0	1060	24.787331414013	0.103508670293
0	1068	24.839361210606	0.052029796593
0	1076	25.012222811991	0.172861601385
0	1084	25.037756281155	0.025533469164
0	1092	25.119890283309	0.082134002154
0	1100	25.148625650444	0.028735367135
0	1108	25.390360288137	0.241734637693
0	1116	25.396121729932	0.005761441795
0	1124	25.731048177538	0.334926447606
0	1132	25.735507184456	0.004459006918
0	1140	25.75771028007	0.022203095614
0	1148	25.759192114418	0.001481834348
0	1156	26.037388208831	0.278196094413
0	1164	26.844132878325	0.806744669494
0	1172	27.052511485845	0.20837860752
0	1180	27.752586787754	0.700075301909
0	1188	27.801362992088	0.048776204334
0	1196	28.343551840011	0.542188847923
0	1204	28.348761859686	0.005210019675
0	1212	28.383548809898	0.034786950212
0	1220	28.698531340287	0.314982530389
0	1228	28.988718071128	0.290186730841
0	1236	29.014338398483	0.025620327355
0	1244	29.259273860698	0.244935462215
0	1252	29.262434460938	0.00316060024
0	1260	29.650078935962	0.387644475024
0	1268	30.07274233276	0.422663396798
0	1276	30.945030269404	0.872287936644
0	1284	30.981870894177	0.036840624773
0	1292	31.048757497099	0.066886602922
0	1300	31.601562612625	0.552805115526
0	1308	31.606100902743	0.004538290118
0	1316	31.710191162773	0.10409026003
0	1324	32.061009342076	0.350818179303
0	1332	32.33159697487	0.270587632794
0	1340	32.726541951893	0.394944977023
0	1348	32.730292818528	0.003750866635
0	1356	33.013688176027	0.283395357499
0	1364	33.388843248612	0.375155072585
0	1372	33.867426640274	0.478583391662
0	1380	34.159713960171	0.292287319897
0	1388	34.91514419355	0.755430233379
0	1396	34.926228909161	0.011084715611
0	1404	34.956693577906	0.030464668745
0	1412	35.013788887886	0.05709530998
0	1420	35.014688455721	0.000899567835
0	1428	35.43753915477	0.422850699049
0	1436	35.976392105767	0.538852950997
0	1444	36.016354595587	0.03996248982
0	1452	36.317532487638	0.301177892051
0	1460	36.319764898053	0.002232410415
0	1468	37.000969970843	0.68120507279
0	1476	37.156342234421	0.155372263578
0	1484	37.172007118074	0.015664883653
0	1492	37.261426877312	0.089419759238
0	1500	37.726309346316	0.464882469004
0	1508	37.856598209974	0.130288863658
0	1516	38.040589680533	0.183991470559
0	1527	38.087463729188	0.046874048655
0	1532	38.087570310837	0.000106581649
0	1540	38.099728591741	0.012158280904
0	1548	38.819470167231	0.71974157549
0	1556	38.834560951102	0.015090783871
0	1564	38.851131111736	0.016570160634
0	1572	38.986244375146	0.13511326341
0	1580	39.347759034428	0.361514659282
0	1588	39.736148144785	0.388389110357
0	1596	39.947258999102	0.211110854317
0	1604	39.969915523996	0.022656524894
0	1612	40.366190705371	0.396275181375
0	1620	40.657211089799	0.291020384428
0	1628	40.775583153881	0.118372064082
0	1636	41.127906732266	0.352323578385
0	1644	41.470296304889	0.342389572623
0	1652	41.787775321521	0.317479016632
0	1660	41.929054337245	0.141279015724
0	1668	41.948874375051	0.019820037806
0	1676	42.395080662313	0.446206287262
0	1684	42.720304758189	0.325224095876
0	1692	42.810497787398	0.090193029209
0	1700	43.055480870127	0.244983082729
0	1708	43.22667233697	0.171191466843
0	1716	43.299243307547	0.072570970577
0	1724	43.40645120506	0.107207897513
0	1732	43.809166115524	0.402714910464
0	1740	44.37529911517	0.566132999646
0	1748	44.81050602735	0.43520691218
0	1756	44.970083036053	0.159577008703
0	1764	45.045559831135	0.075476795082
0	1772	45.383867533051	0.338307701916
0	1780	45.634053382312	0.250185849261
0	1788	46.278990191803	0.644936809491
0	1796	46.621923102818	0.342932911015
0	1804	46.792153912625	0.170230809807
0	1812	46.878552597985	0.08639868536
0	1820	47.056463124226	0.177910526241
0	1828	47.15420996832	0.097746844094
0	1836	47.503255183261	0.349045214941
0	1844	47.653804828533	0.150549645272
0	1852	47.911003612844	0.257198784311
0	1860	48.010035597901	0.099031985057
0	1868	48.175469841722	0.165434243821
0	1876	48.724776893618	0.549307051896
0	1884	48.770323541704	0.045546648086
0	1892	48.918539845901	0.148216304197
0	1900	48.931468782771	0.01292893687
0	1908	49.378370834884	0.446902052113
0	1916	49.450735823033	0.072364988149
0	1924	49.547661491989	0.096925668956
0	1932	49.638390520141	0.090729028152
0	1940	50.076544505568	0.438153985427
0	1948	50.146926718736	0.070382213168
0	1956	50.438627369628	0.291700650892
0	1964	50.681197524389	0.242570154761
0	1972	51.040019526109	0.35882200172
0	1980	51.087014405625	0.046994879516
0	1988	51.194738771483	0.107724365858
0	1996	51.21611846112	0.021379689637
0	2004	51.887203940251	0.671085479131
0	2012	51.979216530286	0.092012590035
0	2020	52.195806833194	0.216590302908
0	2028	52.397610743583	0.201803910389
0	2036	52.52467236749	0.127061623907
0	2044	52.850673038687	0.326000671197
0	2052	52.851585422876	0.000912384189
0	2060	52.947489825881	0.095904403005
0	2068	53.228269409258	0.280779583377
0	2076	53.594267455282	0.365998046024
0	2084	53.730792239087	0.136524783805
0	2092	54.104208633305	0.373416394218
0	2100	54.248129309835	0.14392067653
0	2108	54.348354471352	0.100225161517
0	2116	54.474293864384	0.125939393032
0	2124	54.66625290665	0.191959042266
0	2132	55.311749913737	0.645497007087
0	2140	55.412318968355	0.100569054618
0	2148	55.919847206167	0.507528237812
0	2156	55.966219880231	0.046372674064
0	2164	55.970129144843	0.003909264612
0	2172	56.037061461582	0.066932316739
0	2180	56.162482185468	0.125420723886
0	2188	57.131219941971	0.968737756503
0	2196	57.220244597649	0.089024655678
0	2204	57.379825254412	0.159580656763
0	2212	57.493519565592	0.11369431118
0	2220	57.696836370622	0.20331680503
0	2228	57.962485227642	0.26564885702
0	2236	58.293091627562	0.33060639992
0	2244	59.175149006681	0.882057379119
0	2252	59.223810527846	0.048661521165
0	2260	59.552918042845	0.329107514999
0	2268	59.675715824624	0.122797781779
0	2276	59.991756133859	0.316040309235
0	2284	60.434010475084	0.442254341225
0	2292	60.492314750191	0.058304275107
0	2300	60.672354891983	0.180040141792
0	2308	61.322149580505	0.649794688522
0	2316	61.330775253393	0.008625672888
0	2324	61.353487458685	0.022712205292
0	2332	61.516780608182	0.163293149497
0	2340	61.594807177009	0.078026568827
0	2348	61.660952029534	0.066144852525
0	2356	62.058409822173	0.397457792639
0	2364	62.556628840911	0.498219018738
0	2372	62.821969505277	0.265340664366
0	2380	63.061354209511	0.239384704234
0	2388	63.240440438838	0.179086229327
0	2396	63.535910467189	0.295470028351
0	2404	63.635590877203	0.099680410014
0	2412	63.795811562496	0.160220685293
0	2420	63.903219767265	0.107408204769
0	2428	64.026358839345	0.12313907208
0	2436	64.17170621398	0.145347374635
0	2444	64.525387982374	0.353681768394
0	2452	64.796803459744	0.27141547737
0	2460	64.822088625449	0.025285165705
0	2468	64.870256534323	0.048167908874
0	2476	65.184293140108	0.314036605785
0	2484	65.184889908308	0.0005967682
0	2492	65.718837792618	0.53394788431
0	2500	65.916623733589	0.197785940971
0	2508	66.251217168479	0.33459343489
0	2516	66.356688037905	0.105470869426
0	2524	66.865765383078	0.509077345173
0	2532	67.094877919594	0.229112536516
0	2540	67.13324879927	0.038370879676
0	2548	67.338443516508	0.205194717238
0	2556	67.349340501615	0.010896985107
0	2564	67.381197199707	0.031856698092
0	2572	67.952286844916	0.571089645209
0	2580	68.336717029681	0.384430184765
0	2588	68.400116683602	0.063399653921
0	2596	68.665519803521	0.265403119919
0	2604	68.903839417415	0.238319613894
0	2612	69.091895127717	0.188055710302
0	2620	69.111065802517	0.0191706748
0	2628	69.154710409756	0.043644607239
0	2636	69.210059760584	0.055349350828
0	2644	69.422971873097	0.212912112513
0	2652	69.512985584419	0.090013711322
0	2660	69.802378034278	0.289392449859
0	2668	69.940024081132	0.137646046854
0	2676	70.435603795704	0.495579714572
0	2684	70.454353856254	0.01875006055
0	2692	70.911933855432	0.457579999178
0	2700	70.961178405296	0.049244549864
0	2708	71.008472688947	0.047294283651
0	2716	71.167744826731	0.159272137784
0	2724	71.284334166572	0.116589339841
0	2732	71.290381718218	0.006047551646
0	2740	71.318267896216	0.027886177998
0	2748	71.576902234752	0.258634338536
0	2756	71.8355745806	0.258672345848
0	2764	72.242725875143	0.407151294543
0	2772	72.368537080673	0.12581120553
0	2780	72.440785438473	0.0722483578
0	2788	72.590424526522	0.149639088049
0	2796	72.621012373595	0.030587847073
0	2804	72.805726547658	0.184714174063
0	2812	73.059710898286	0.253984350628
0	2820	73.347915582002	0.288204683716
0	2828	73.435957636929	0.088042054927
0	2836	73.664223552232	0.228265915303
0	2844	73.70412427607	0.039900723838
0	2852	74.04833958031	0.34421530424
0	2860	75.010912112907	0.962572532597
0	2868	75.350099900462	0.339187787555
0	2876	75.462863662282	0.11276376182
0	2884	75.529796478583	0.066932816301
0	2892	75.726311084515	0.196514605932
0	2900	75.868085889184	0.141774804669
0	2908	76.125205534268	0.257119645084
0	2916	76.451900159627	0.326694625359
0	2927	76.80936199006	0.357461830433
0	2932	76.809488456415	0.000126466355
0	2940	76.849421642278	0.039933185863
0	2948	76.965305665165	0.115884022887
0	2956	76.991724784749	0.026419119584
0	2964	77.245408602541	0.253683817792
0	2972	77.434801319345	0.189392716804
0	2980	77.442993233722	0.008191914377
0	2988	77.739252014801	0.296258781079
0	2996	77.97655669028	0.237304675479
0	3004	77.980368931906	0.003812241626
0	3012	78.342778413846	0.36240948194
0	3020	78.59367914786	0.250900734014
0	3028	78.669298386492	0.075619238632
0	3036	78.747792843399	0.078494456907
0	3044	78.812181023218	0.064388179819
0	3052	78.969756883147	0.157575859929
0	3060	79.048521579758	0.078764696611
0	3068	79.16993837208	0.121416792322
0	3076	79.32786961811	0.15793124603
0	3084	79.864770007224	0.536900389114
0	3092	79.915999296638	0.051229289414
0	3100	79.945017837369	0.029018540731
0	3108	79.986825624323	0.041807786954
0	3116	80.216657127434	0.229831503111
0	3124	80.437722089149	0.221064961715
0	3132	81.669501765272	1.231779676123
0	3140	82.054435501898	0.384933736626
0	3148	82.237851401976	0.183415900078
0	3156	82.64916967421	0.411318272234
0	3164	82.808602259929	0.159432585719
0	3172	83.066866101191	0.258263841262
0	3180	83.144176042385	0.077309941194
0	3188	83.618325633075	0.47414959069
0	3196	83.660055393233	0.041729760158
0	3204	83.711318722049	0.051263328816
0	3212	84.267479066419	0.55616034437
0	3220	84.293567490969	0.02608842455
0	3228	84.294325962258	0.000758471289
0	3236	84.302224017963	0.007898055705
0	3244	84.341009763975	0.038785746012
0	3252	84.360223965009	0.019214201034
0	3260	84.397325472174	0.037101507165
0	3268	84.744244405189	0.346918933015
0	3276	84.798236148824	0.053991743635
0	3284	84.803879410721	0.005643261897
0	3292	85.756892716488	0.953013305767
0	3300	86.124907049712	0.368014333224
0	3308	86.590384782283	0.465477732571
0	3316	86.940329841292	0.349945059009
0	3324	87.008721353433	0.068391512141
0	3332	87.030997695248	0.022276341815
0	3340	87.209465119614	0.178467424366
0	3348	87.241844691407	0.032379571793
0	3356	87.421766386933	0.179921695526
0	3364	88.020550494162	0.598784107229
0	3372	88.173992761136	0.153442266974
0	3380	88.292988443337	0.118995682201
0	3388	88.364611368896	0.071622925559
0	3396	88.368830190388	0.004218821492
0	3404	88.542098445211	0.173268254823
0	3412	88.554755699377	0.012657254166
0	3420	88.718513108542	0.163757409165
0	3428	88.787236382327	0.068723273785
0	3436	89.028005460527	0.2407690782
0	3444	89.162048527825	0.134043067298
0	3452	89.328741553206	0.166693025381
0	3460	89.486867142706	0.1581255895
0	3468	89.732740228576	0.24587308587
0	3476	89.867191476279	0.134451247703
0	3484	90.294175915764	0.426984439485
0	3492	90.46602978957	0.171853873806
0	3500	90.633019945196	0.166990155626
0	3508	90.820624344164	0.187604398968
0	3516	91.792605054407	0.971980710243
0	3524	91.794231141355	0.001626086948
0	3532	92.071407128464	0.277175987109
0	3540	92.256689067345	0.185281938881
0	3548	92.333623369952	0.076934302607
0	3556	92.535042856548	0.201419486596
0	3564	92.863143130784	0.328100274236
0	3572	92.863388768563	0.000245637779
0	3580	93.25330132538	0.389912556817
0	3588	93.510798511539	0.257497186159
0	3596	93.639329325389	0.12853081385
0	3604	94.297604428955	0.658275103566
0	3612	95.092882479265	0.79527805031
0	3620	95.155557447703	0.062674968438
0	3628	95.573678506409	0.418121058706
0	3636	95.633163757806	0.059485251397
0	3644	95.643866054012	0.010702296206
0	3652	95.69849220694	0.054626152928
0	3660	95.830489817955	0.131997611015
0	3668	95.92828671832	0.097796900365
0	3676	96.02164742285	0.09336070453
0	3684	96.604881014307	0.583233591457
0	3692	96.944305361688	0.339424347381
0	3700	96.992369744401	0.048064382713
0	3708	97.136327195575	0.143957451174
0	3716	97.2564780128	0.120150817225
0	3724	98.26910516793	1.01262715513
0	3732	98.750472748223	0.481367580293
0	3740	98.772118935553	0.02164618733
0	3748	99.314256899373	0.54213796382
0	3756	99.634095880307	0.319838980934
0	3764	99.711372706122	0.077276825815
0	3772	99.761789907429	0.050417201307
0	3780	100.342147192801	0.580357285372
0	3788	100.599577825455	0.257430632654
0	3796	100.69728338266	0.097705557205
0	3804	100.894766909226	0.197483526566
0	3812	101.130381713734	0.235614804508
0	3820	101.18833764913	0.057955935396
0	3828	101.322257849184	0.133920200054
0	3836	101.428192210255	0.105934361071
0	3844	101.48112253395	0.052930323695
0	3852	101.692622931706	0.211500397756
0	3860	102.105747682415	0.413124750709
0	3868	102.330964318721	0.225216636306
0	3876	102.676333046995	0.345368728274
0	3884	102.693747508356	0.017414461361
0	3892	103.082698708566	0.38895120021
0	3900	103.175075654348	0.092376945782
0	3908	103.432320799482	0.257245145134
0	3916	103.518187910833	0.085867111351
0	3924	103.684824317376	0.166636406543
0	3932	103.786334044694	0.101509727318
0	3940	104.270074204934	0.48374016024
0	3948	104.353389466032	0.083315261098
0	3956	104.418525232384	0.065135766352
0	3964	104.55896965468	0.140444422296
0	3972	104.988966269356	0.429996614676
0	3980	105.003198570776	0.01423230142
0	3988	105.144613265813	0.141414695037
0	3996	105.278285953863	0.13367268805
0	4004	105.31612314568	0.037837191817
0	4012	105.567826894156	0.251703748476
0	4020	105.675238499136	0.10741160498
0	4028	105.691181440227	0.015942941091
0	4036	105.724366358109	0.033184917882
0	4044	106.447982380378	0.723616022269
0	4052	106.501958813782	0.053976433404
0	4060	106.952953152445	0.450994338663
0	4068	107.324372305088	0.371419152643
0	4076	107.86805980093	0.543687495842
0	4084	107.910105949357	0.042046148427
0	4092	107.915178988075	0.005073038718
0	4100	107.999248163027	0.084069174952
0	4108	108.072810206645	0.073562043618
0	4116	108.198636200772	0.125825994127
0	4124	108.485459932261	0.286823731489
0	4132	109.35200203741	0.866542105149
0	4140	109.462988320322	0.110986282912
0	4148	109.772369163239	0.309380842917
0	4156	109.774972707057	0.002603543818

