version 2
run General-1-20220601-20:30:44-10996
attr configname General
attr datetime 20220601-20:30:44
attr experiment General
attr inifile omnetpp.ini
attr iterationvars $0=200
attr iterationvarsf 200-
attr measurement $0=200
attr network Lab3
attr processid 10996
attr repetition 0
attr replication #0
attr resultdir results
attr runnumber 1
attr seedset 1
param **.num_of_hosts 10
param **.test_arp_requests 200
param **.next_event_par 1.0/0.5
param **.pck_len_mean 1000
param **.pck_len_stddev 150
param **.pck_len_min 26
param **.pck_len_max 1480
param **.host[9].eth.arp_ttl 10s
param **.host[*].eth.arp_ttl 20s
param **.aging_time 1s

vector 0 Lab3.host[0].eth interarrivalTime1:vector ETV
attr interpolationmode none
vector 1 Lab3.host[0].eth interarrivalTime0:vector ETV
attr interpolationmode none
0	104	0	0
0	530	4.817530932881	4.817530932881
0	813	9.378808773823	9.378808773823
0	1104	14.117718666415	14.117718666415
0	1155	14.235487591772	14.235487591772
0	1984	26.160716230428	26.160716230428
0	2233	29.989279057183	29.989279057183
0	2590	36.939026312836	36.939026312836
0	2747	40.055357614836	35.237826681955
0	2806	40.593573536866	26.475854870451
0	2948	42.608125402301	33.229316628478
0	3523	52.185360423734	26.024644193306
0	4022	60.42703892696	30.437759869777
0	4554	69.437235360108	26.829109957807
0	5154	77.983347863979	37.389774327113
0	5470	81.809875668884	29.62451524515
0	6138	94.025278532753	33.598239605793
0	6180	94.509596783273	25.072361423165
0	6571	99.729846226117	85.494358634345
0	6894	104.50886061775	26.525512753771
0	6911	105.106574193557	65.051216578721
0	7052	108.78254010463	108.78254010463
0	7202	110.15393343343	73.214907120594
0	7310	112.080550039091	30.270674370207
0	7595	118.883618077112	24.858339544359
0	8040	124.964548728986	20.455688111236
0	8230	129.801679423455	30.071833197338
0	8338	131.304737180982	22.522197076352
0	8579	136.179908895575	26.025975462145
0	8797	138.1676350151	26.087084976009
0	9030	141.67772908181	22.794111004698
0	9263	148.830735092612	54.321138309339
0	9656	156.132524771042	31.167976042056
0	9689	156.947342248828	25.642605067846
0	9756	157.657571328337	27.855891904882
0	10532	170.610423618076	28.932694536266
0	10899	177.077337843074	38.909702827974
0	11216	180.854093640808	75.747519447251
0	11307	182.441070306995	24.783498978658
0	11681	190.39848060804	41.567745515428
0	12325	201.95735821458	21.103264573772
0	12534	207.14651245659	24.705442149595
0	12592	207.976258006674	71.796349111099
0	12950	211.150167019621	40.539743401545
0	13124	212.749862672675	56.617337901633
0	13290	215.700058031157	38.622720188083
0	13307	216.017958841756	59.070616592928
0	14098	228.961362401181	20.985104394507
0	14339	232.137038229314	24.990525772724
0	14698	238.701645494285	48.303164886245
0	15005	243.02556608776	27.325508056603
0	15193	246.200097185612	35.049930165991
0	15634	253.260263810574	40.510401137899
0	16312	263.750465694322	34.789103293141
0	16438	265.933396347166	63.976038132586
0	16455	266.490035003845	27.78838950956
0	16783	270.717681249357	38.580643020043
0	16935	273.144467345042	30.118901257282
0	17036	274.486875078667	28.286777893055
0	17144	276.238415634679	22.978151824105
0	17278	278.750933054598	62.732974212842
0	17866	290.521668652637	26.771202958315
0	17950	291.975972806499	21.258291557142
0	18109	294.38098263253	27.890947628685
0	18412	299.711639984387	23.473224349708
0	18654	304.035554498815	29.548679420148
0	19323	315.221689819971	49.288293472805
0	19382	315.954477423818	21.573494791288
0	19696	321.030650405978	42.27971735138
0	20155	327.165949230398	54.021481885356
0	20574	333.590420987035	29.55486648822
0	20690	335.988930232082	36.277290247695
0	21046	341.279393210222	50.757724557585
0	21380	346.528791636466	25.498141230488
0	21653	351.274082256378	59.298109449879
0	21802	354.247858594962	39.026168774991
0	22152	358.902031790536	22.913101558454
0	22396	364.650883977609	31.060462990574
0	22578	367.897685239818	26.618292029596
0	22804	372.949172544235	26.420380907769
0	23057	376.730168199268	25.45608594289
0	23381	381.314597436419	22.412565645883
0	23506	383.163834421637	28.915975826675
0	23965	390.246930722068	25.596046744459
0	23990	390.466384387353	74.511906963535
0	24259	394.61419628844	26.716511048622
0	24568	400.530551432252	23.800383232984
0	25234	413.033894212888	22.78696349082
0	25284	413.860602328864	32.546004892445
0	25659	420.981678630792	26.367482342352
0	26293	434.15183306479	106.98588383439
0	26451	435.557463554529	35.026912122277
0	26851	443.0393526901	70.090180145865
0	26959	443.985911814891	53.519527427538
0	27427	450.071955670783	37.038061457895
0	28126	462.299007216878	41.317328586086
0	28409	466.093306515265	22.107394700374
0	28476	466.630748256975	52.770145928111
0	28735	470.060902078171	34.503438523642
0	29125	477.799460982174	27.727505311391
0	29655	485.505816363597	23.206809146719
0	29840	488.227120714826	21.596372457851
0	30082	491.798456894993	48.759104204893
0	30214	493.693726139047	23.632824060876
0	30505	498.449455718626	115.28562129699
0	30572	498.880983370809	64.729150306019
0	30929	507.483259541367	29.683798559193
0	31462	513.190511782308	21.392054887315
0	31479	513.194708058306	24.96758734348
0	31546	514.713352562745	29.207536199148
0	31979	521.336650248829	55.243343733564
0	32486	532.155444464575	33.274461093766
0	32671	534.814524113955	21.619816055649
0	32738	535.65490932844	37.205453609814
0	32780	535.885871538742	21.172518975997
0	33413	544.090929393575	22.754279144746
0	34188	556.215435025809	20.560525697369
0	34213	556.45530304384	43.264791261532
0	34306	557.162080989156	22.347556875201
0	34323	557.166031063685	49.682771522318
0	34756	566.061799144677	30.175927605935
0	34881	567.797095775624	74.103369636577
0	34964	568.633587059727	36.478142595152
0	35341	575.526104600645	31.43517520707
0	36136	587.81582172152	20.018725945896
0	36178	588.247817177493	22.186018032816
0	36478	593.000134111882	35.834103048197
0	36544	594.151837160671	36.989756171515
0	36585	595.936000712207	20.409896111562
0	36769	597.652115717838	41.196812673998
0	36819	598.002431778004	41.786996752195
0	36977	600.97284540839	32.339258348663
0	38170	617.650477774609	24.650343662727
0	38229	618.240442270167	24.088605109496
0	38329	620.413334221162	32.165517043669
0	38452	622.108722905729	26.172722193522
0	38672	626.754614800552	25.781769392162
0	38689	627.097288793071	39.281467071551
0	38971	631.534414834291	33.531983056287
0	39070	632.892363782315	35.240248064477
0	39723	641.285355091245	23.044912821078
0	40072	646.466285466898	26.052951245736
0	40470	652.021746135773	24.924457342702
0	40487	652.13796598748	34.487488212871
0	40854	657.894830972614	35.786108066885
0	41438	666.185648048353	39.431033247801
0	41969	675.916572740931	34.631217649686
0	42028	676.697717271884	24.675971136111
0	42727	689.685223142912	56.792859360597
0	42845	691.670366321507	33.775535348893
0	43572	705.742574732113	29.826001991182
0	43589	705.774141768751	39.588493720398
0	43924	711.250760401704	79.716345567413
0	44016	713.449467498751	66.983182031853
0	44166	714.465919387005	22.795553065498
0	44316	715.970440523358	63.832474535878
0	44350	716.228415523965	39.530698252081
0	44704	724.469882276118	34.784659133206
0	45413	733.216957718462	27.474382986349
0	45488	735.663514564653	22.214047065902
0	45921	743.145378642116	26.916963118151
0	45955	743.956215979613	29.490296592608
0	46343	749.90903392426	38.658273522556
0	46675	757.631339780393	21.96782521574
0	46777	759.705520620041	35.235638343923
0	46827	760.147994809229	54.373853040478
0	47112	765.165618709222	49.195178185864
0	47619	775.858953947594	25.949920023334
0	47686	777.05829131646	33.912912674344
0	47770	777.63476052527	44.417802806808
0	48206	783.918886103748	23.770891294519
0	48732	790.927303343757	33.295963563364
0	48923	793.381684484618	33.676163864577
0	49196	797.739350445434	20.104589920164
0	49353	800.336402474647	35.170783765425
0	49476	802.393055700212	26.534101752618
0	49784	807.560658778002	63.604442798389
0	50409	817.104709346917	40.046418030457
0	50882	826.235208964625	35.307905620868
0	50974	828.037087985399	30.297737539965
0	51016	829.195665651758	21.635006873756
0	51223	832.311780892171	48.392894788423
0	51423	835.016818357835	41.635133873217
0	51516	836.020535305667	35.68413283102
0	51857	842.166561584827	39.773505884615
0	51874	842.498504677992	25.393795331075
0	52679	857.02107562169	24.709294729519
0	52771	858.948306772996	22.927771467329
0	52822	859.294292320837	31.257204335438
0	52972	860.412650607525	31.216984955767
0	53391	864.577214458685	38.34200549406
0	54221	877.050131078663	42.033312720828
0	54385	879.870435001244	37.703873416417
0	54686	885.770597437402	28.749521815712
0	55029	890.377244470752	31.428937697756
0	55121	891.776985126416	27.199770667731
0	55362	896.198957815208	35.786307207683
0	55613	901.088576363153	41.794284042316
0	55787	904.534942688051	27.484811609388
0	56620	918.891588157093	28.514343686341
0	56870	924.623979232488	28.42502141728
0	56895	924.795171945585	20.260229257534
0	57012	926.596560061131	46.726125059887
0	57121	928.204309267358	85.705804589366
0	57381	931.944106020427	30.855529657274
0	58169	943.60444943493	57.833851997528
0	58644	950.242818904066	31.351230746973
0	58745	952.213538334738	27.58955910225
0	58962	954.785123298175	22.841017277748
0	58987	954.990380102372	63.213394975956
0	59220	958.35419615724	31.757636096109
0	59262	958.468402128821	33.673230183236
0	59662	966.239075576877	38.034766309519
0	60087	975.124793317692	20.339670019517
0	60288	978.612187149418	23.621807047046
0	60397	979.752999672584	21.398803515344
0	60447	980.91254165055	28.699003315812
0	60840	989.126154442592	22.887078865715
0	61365	998.202216016386	23.077422698694
0	61523	1001.205279362981	42.73687723416
0	61725	1004.329077377375	60.724627942445
0	61841	1005.595317105605	24.682775455055
0	61932	1007.012336079572	56.769517175506
0	61990	1007.757527042585	28.004527370001
0	62116	1009.481074635483	20.354920192891
0	62728	1019.689529208015	21.487313191629
0	63129	1026.427325417824	20.832008312219
0	63229	1028.468071959081	49.855884809663
0	63945	1041.424116425066	31.943041789583
0	64070	1043.745815605931	36.733479526359
0	65001	1058.239729603831	31.812404186007
0	65376	1063.730806696448	62.525527333467
0	65510	1066.685283564016	22.939467958085
0	65802	1070.659610294903	29.235493869837
0	66534	1082.244532115101	62.555002907086
0	66933	1090.960038549883	24.274754985867
0	66966	1091.311779426186	20.652169131283
0	67604	1101.56804484782	73.099972888739
0	67621	1101.732362428217	43.492632824386
0	68010	1109.420552375445	27.176020260344
0	68203	1112.424080384392	108.09500300702
0	68270	1113.542844505809	22.582805955926
0	68787	1124.456950129241	22.888905281421
0	69173	1128.789594726001	65.058788029553
0	69447	1132.426166318968	124.66863927638
0	69546	1134.657587420003	25.237035044558
0	69571	1134.686402306554	32.954039878337
0	69605	1135.133239841598	22.709159457206
0	69788	1138.09614555054	24.553301044731
0	70662	1153.309046405243	61.997266979057
0	70839	1154.882674488833	20.196272182279
0	70915	1157.259224568505	28.469629842504
0	70981	1159.059922024388	24.402334604385
0	71252	1162.397324498051	24.301178947511
0	71717	1168.87400885133	44.417058722089
0	72007	1175.365741426616	22.056695021373
0	72548	1185.318922001992	52.892755683024
0	72639	1186.554541143862	31.671866655029
0	72881	1191.307795539377	28.910471041326
0	74038	1208.588121936772	33.222380510156
0	74295	1212.966223152087	44.092214300757
0	74562	1217.113557058681	25.805761519304
0	74737	1219.908981916148	34.590059914156
0	75113	1227.374393051204	68.314471026816
0	75321	1231.010397906416	22.422275969644
0	75445	1233.196444606772	46.64190346291
0	75804	1240.035858351127	104.90261850953
0	76082	1242.709437301471	22.800455385323
0	76564	1250.746634982241	93.487410413736
0	76622	1251.531911041902	24.157517990698
0	77406	1262.486939664972	49.520716512885
0	77456	1263.395995736827	30.199551130055
0	78127	1276.247213224639	25.500578242398
0	78253	1277.540377724863	26.008466682961
0	78287	1277.961367986113	37.925509634986
0	78328	1278.603370618858	35.893933317387
0	78519	1281.126151404897	50.115753498481
0	78791	1287.040755383149	24.553815718177
0	79756	1301.324922676267	84.211365617586
0	79773	1301.740891488435	38.344895751608
0	79814	1302.543154342491	25.002776617628
0	80418	1309.749664888162	31.146294269304
0	80435	1309.752421626842	22.711666243693
0	80635	1314.013394964082	36.052026977969
0	81523	1328.948845438337	27.207953949902
0	81739	1332.628116700257	31.30319402399
0	81905	1334.456302652554	31.913148310063
0	82154	1337.34808558012	27.595663953278
0	82346	1340.648904738972	30.89923985081
0	82479	1342.657737701714	61.531586296817
0	82586	1343.999863425885	29.986468461803
0	82761	1346.776003973754	70.528790749115
0	83410	1357.139828329889	24.511711629632
0	83435	1357.610498994123	20.262413414003
0	83933	1364.932244757362	20.932381331477
0	84300	1371.070050919369	36.613748266815
0	84374	1371.809447492289	25.033443518535
0	84523	1374.300875529227	33.651970790255
0	84756	1378.95103373879	21.811205408901
0	84898	1381.291705594335	38.633967892621
0	85575	1392.852046258274	63.903200819937
0	86171	1401.386209617086	29.576762124797
0	86212	1401.969053062682	27.668177533455
0	86413	1404.135655875092	33.065604955723
0	86572	1406.172342464092	41.24009770673
0	86688	1407.759864489133	28.808830750343
0	86871	1412.129598077539	30.837892483204
0	87778	1429.63312019344	21.873255704307
0	87829	1429.957681368769	23.785338904677
0	87921	1430.990648847979	26.854992972887
0	88339	1438.495256710178	45.643210451904
0	88389	1439.097543795214	37.711334178128
0	88921	1450.910713866693	21.277593673253
0	88979	1451.512351276662	49.54329821398
0	89045	1451.928876952653	20.938228104674
0	89062	1452.016892120359	22.05921075159
0	89396	1456.967933062106	99.357434067983
0	89464	1457.116316914425	44.986718836886
0	90291	1472.271274338973	21.36056047228
0	90786	1478.993551004714	22.025617942608
0	90954	1481.37261091604	42.877354205862
0	91146	1484.478428534569	32.46153641421
0	91222	1485.439959250912	46.342415455698
0	91485	1490.311353324387	33.195036409962
0	91675	1492.189144046073	40.26026709342
0	92465	1504.307279615756	52.794928339094
0	92614	1505.992792646837	24.620181730797
0	92853	1511.854630688268	27.376202153699
0	92878	1512.30060379205	40.029329453077
0	93378	1521.385644532134	31.074291207747
0	93679	1523.778081132794	38.338121881882
0	93940	1526.354054883258	34.164910837185
0	93974	1526.78111161926	20.788318972423
0	94254	1532.915321179095	21.060690490827
0	95312	1549.660342701485	23.306287818227
0	95429	1550.650824877335	71.657273872621
0	95835	1557.835197452543	31.054085833283
0	96017	1562.225555157042	29.310233977947
0	96135	1563.602388731126	39.824307598332
0	96909	1574.953721144497	62.653117352447
0	96960	1575.552898917859	24.902074040524
0	97092	1577.70614447246	28.045801770975
0	97126	1577.995232096252	56.609587564118
0	97267	1580.027731194769	22.192533742226
0	97820	1590.330136824698	86.022857208942
0	98188	1596.17722295309	21.223501808593
0	98363	1598.763568289149	21.057423816689
0	98822	1607.502098456208	29.506866359956
0	99021	1610.799715638328	20.46957881363
0	99488	1616.086484418341	40.533585500482
0	99603	1618.080510615061	38.052779420292
0	99862	1622.087529157886	23.323960868737
0	100204	1625.998799287656	29.821576334566
0	100362	1628.231977107145	64.629588376019
0	100437	1630.029511769611	67.803956612569
0	100454	1630.262127284796	22.760028828588
0	100911	1638.861201588539	22.774717170198
0	101192	1644.169733951901	33.370018313573
0	101327	1647.064345781879	24.976816623993
0	101634	1652.628897419327	24.396920312182
0	102093	1657.481008740916	27.451496971305
0	102176	1659.360798235975	33.361998948319
0	102293	1660.670196699438	42.589686084377
0	102384	1662.575008618579	23.71380703004
0	103104	1673.574477917332	26.510132135453
0	103178	1674.540893170374	44.278765885578
0	103528	1679.990431505631	22.509422764715
0	103577	1681.001335997248	21.640537761273
0	104117	1687.725782213511	25.150773594932
0	104631	1696.567374800556	35.897178101118
0	104808	1698.884818183797	46.25592076447
0	104950	1701.671325299589	57.501591347688
0	105304	1707.99509441672	34.420616499388
0	105493	1710.599026363485	29.597690366237
0	105981	1718.123170119298	38.132738613667
0	106197	1722.585008387406	26.01763358685
0	106498	1726.638728612102	52.097835441728
0	106882	1733.397459809583	31.726134509994
0	107024	1736.02790088266	25.428874519175
0	107382	1740.973405255483	42.088587071686
0	107473	1742.360064692162	24.236894572864
0	108138	1753.40791204163	26.769183429528
0	108404	1756.929760715231	23.532300905648
0	108589	1759.945887271878	23.917986389218
0	108896	1765.844134541784	24.870729286301
0	109047	1768.880377019692	81.154594806181
0	109438	1774.772161793111	21.364249751481
0	109822	1781.31163197407	38.951567281908
0	109880	1782.010259203329	22.064371931451
0	110107	1785.658957067989	28.729196352758
0	110149	1786.381129362733	78.386034946013
0	110795	1797.505674923749	22.733513130638
0	110845	1798.290449614925	32.446315073141
0	111446	1808.226662850261	26.915030876191
0	111594	1810.772150215647	28.761891012318
0	111852	1813.974942518535	27.593813155802
0	112408	1821.780768029848	99.195759642442
0	112618	1824.234517839127	38.575560771138
0	112702	1824.96912518337	26.678675568445
0	112899	1827.969261981588	59.088884961896
0	113297	1835.382995192944	21.408052674409
0	113721	1842.399357080158	34.172694229897
0	114241	1853.792774791732	25.823512810144
0	114308	1854.532744609438	30.298226770311
0	114425	1855.540833979045	58.035159055296
0	114483	1857.12931526053	35.348547230682
0	114625	1860.160073448192	24.777078255248
0	114884	1864.124112130856	53.351961915209
0	115626	1876.459389047667	22.666614255935
0	115835	1879.161255794764	24.628511185326
0	115894	1880.552827185207	23.423511924677
0	115979	1881.681705220018	26.140871240973
0	116103	1883.607086143924	58.637960960554
0	116120	1883.736548359347	41.337191279189
0	116171	1883.942280108446	23.782206660254
0	117102	1899.179409876475	35.055297745619
0	117577	1906.427095579229	24.745390359211
0	118115	1914.792363812043	34.239536626836
0	118305	1919.108210459686	35.16593035124
0	118889	1929.088679355069	22.66158377584
0	119063	1931.549354698407	32.369944821932
0	119172	1933.175994251127	49.43944589178
0	119632	1939.265998848621	55.658912704697
0	119972	1945.125227124961	68.665838077294
0	120843	1958.255448303075	43.463084491032
0	121035	1961.274958467861	42.166748008175
0	121220	1964.559808420108	85.398552625344
0	121237	1964.820916933343	25.554918084722
0	121588	1970.298144077708	38.748789379301
0	122179	1980.596822369652	35.471595244691
0	122238	1981.255787144007	52.167107788938
0	122263	1982.040670169452	20.765711701591
0	122688	1988.968534963411	30.713086660336
0	123139	1995.56959251857	30.748675585227
0	123156	1995.802999390847	31.243190970739
0	123248	1997.611577087647	27.313433009939
0	123664	2004.715755211203	71.539760960076
0	123689	2005.087557353327	23.83177020932
0	123838	2007.794455408443	27.197633038791
0	124373	2015.913088801238	33.872418631786
0	125131	2027.828186088687	38.859651125276
0	125305	2030.075317601301	25.359562390098
0	125404	2031.687948904725	36.118356386155
0	125721	2038.30150787072	22.388419069482
0	126283	2048.684541198214	43.596983844887
0	126459	2050.075955001449	42.281499593006
0	127313	2062.924658370463	31.236709465738
0	127405	2064.35730059252	36.529114503833
0	127613	2067.985881160869	29.684373290149
0	127971	2074.209508836915	24.133553835466
0	128241	2078.620021846722	29.935480648508
0	128846	2087.913682666089	90.302105578442
0	129276	2095.364578131516	65.289260530215
0	129452	2099.157667568883	36.23300919842
0	129696	2102.507489859411	23.887468012689
0	130296	2113.561113457758	49.203812865238
0	130321	2113.753373307523	117.95037391668
0	130488	2116.570730762103	42.361221925188
0	130803	2121.678421275978	22.520753707095
0	130878	2122.863646764083	20.356156904672
0	131154	2126.76086398652	58.774982825651
0	131380	2130.989079913364	35.624501781848
0	132130	2143.416482579873	21.738061303895
0	132155	2143.62090756078	55.707224894691
0	132255	2145.863104155692	22.999457391609
0	132540	2150.832955951521	37.079582643998
0	132965	2157.664954093719	30.904090107199
0	133066	2159.060619576785	28.071539663421
0	133657	2169.763114911661	56.202001453903
0	133716	2170.640097422366	24.776993266674
0	133733	2170.944987667917	20.112031716396
0	134364	2179.345809556638	62.775078794535
0	134423	2179.804722648043	20.744103071258
0	134465	2180.405211157933	36.98872857806
0	134531	2181.971291695733	38.350384134953
0	135414	2194.86974056062	23.924752892703
0	135788	2202.320867225842	21.915656067909
0	136004	2206.606011981014	36.842897069353
0	136330	2209.843871938992	30.498062382354
0	136588	2213.749076910831	31.777785215098
0	136732	2215.795217953841	58.130263860122
0	137081	2222.658729456362	20.33786223052
0	137155	2223.088932637031	43.284209988988
0	137498	2227.601924061431	56.961826639065
0	137756	2232.647399087233	26.041387106219
0	138505	2244.774431173661	34.930559234669
0	138590	2245.468335383355	22.809605926993
0	138847	2249.762071303852	26.673138666821
0	139173	2254.27525093972	38.480032985879
0	139712	2262.263502634195	67.393762073575
0	140005	2267.0932007152	39.491276653769
0	140297	2271.913589659386	58.164512748555
0	140671	2277.262087386255	32.487656212594
0	140746	2278.301526786606	28.539455482754
0	141070	2284.323837350684	22.060334716489
0	141345	2288.778823993658	43.310488610303
0	141877	2297.057086518509	42.781835578789
0	142437	2305.828534819861	33.914945160475
0	142780	2310.184928497624	25.86109114694
0	142846	2311.420483420484	33.118956633878
0	143272	2318.340854493426	29.562030499768
0	143836	2328.689227148035	96.041828060802
0	143886	2330.090669423291	62.997468708091
0	143994	2331.800681057129	20.380197636645
0	144438	2340.46978002908	63.207692642825
0	145021	2350.712693077162	32.371838583736
0	145496	2358.578144817677	48.393216320053
0	145843	2362.183532510155	33.49430536212
0	146242	2368.948183122	71.891096603491
0	146873	2379.446254726317	73.617719906456
0	147468	2389.98009747396	21.03191435196
0	147527	2390.744759029847	40.032065952685
0	147561	2390.994751492546	59.194070435417
0	147619	2391.946065552713	29.762533042558
0	147710	2393.330685704782	52.860905675702
0	147836	2395.413132007242	65.322462583951
0	148506	2406.164680442546	26.718425716229
0	148997	2415.100795954547	21.770110249765
0	149297	2419.351949966776	29.371852492816
0	149454	2423.688907986606	28.275775979364
0	149546	2424.673759576537	33.92900054669
0	149837	2428.682967002367	36.736901449654
0	150536	2438.15355204325	23.052756088703
0	151002	2447.584062511428	28.232112544652
0	151126	2449.645481641164	58.650730148618
0	151160	2449.842321233304	25.168561656767
0	151381	2453.191842585187	29.502934598581
0	152086	2463.049401698264	24.895849655014
0	152492	2470.994844581832	21.349362940668
0	152735	2474.077796902595	20.885954317408
0	152752	2474.113546368741	26.529483857313
0	152802	2474.429859522794	45.746892520427
0	153326	2484.353298279379	34.510977046075
0	153991	2494.640974000441	20.211114477647
0	154142	2495.786798477339	89.622118034793
0	154733	2505.750686337201	42.701284638937
0	155169	2513.005991172477	154.4278463548
0	155227	2513.969029627932	42.9741850461
0	155778	2519.964840634241	45.8512942655
0	156608	2535.089462643157	22.08347147068
0	156642	2535.200275477252	40.559301476811
0	156659	2535.619758331003	39.832959853664
0	156717	2536.430004363674	62.352207461079
0	156992	2540.805745166538	35.055058829337
0	157569	2549.400174438094	65.046876158715
0	157742	2551.96941199692	38.000382368988
0	158279	2560.904466400318	20.09872123378
0	158345	2562.540756540917	42.575915906676
0	158563	2565.617657678003	30.417382200751
0	158613	2566.502489701624	30.07248533795
0	159192	2574.850931904835	39.231173573832
0	159241	2576.441744197077	41.35228155392
0	159342	2577.257207030649	27.857032592555
0	159392	2578.26355634787	26.29414435095
0	160039	2586.493811555364	25.589345155046
0	160230	2588.197857487016	21.695367785392
0	160297	2590.461751887789	24.844094209786
0	160602	2595.006777876897	32.46602133598
0	160984	2599.36020929652	22.103002265871
0	161530	2606.533068632862	28.269512284992
0	161954	2612.557195528597	24.359338041581
0	162151	2615.412985579463	40.562053674628
0	162449	2620.897666562884	44.455922365807
0	162808	2625.969786315646	26.609577019126
0	163240	2631.442891729782	40.981139841993
0	163515	2635.381443369563	48.887631814199
0	163532	2635.462068511012	28.92899987815
0	163658	2638.763204406568	43.756426529671
0	164108	2648.011467977618	27.113801414734
0	164760	2659.441544813027	24.060101443464
0	164794	2659.670531885667	47.11333635707
0	164986	2661.875439496541	23.112235089973
0	165234	2665.947741919343	30.485673408331
0	165557	2672.171537795682	56.758552216219
0	166091	2682.183311242547	22.74176642952
0	166624	2689.318960397263	57.876068667481
0	166957	2696.284716550078	36.614184664411
0	167024	2696.909829531564	24.738291735882
0	167057	2697.081373141531	35.20593364499
0	167401	2701.776990595326	35.829248675983
0	167418	2701.89775022056	75.927963904914
0	167560	2703.328107179333	55.316639201715
0	167978	2710.901965552776	28.718654310229
0	168143	2714.498752938563	25.1797925413
0	168609	2722.187944798909	20.290194578349
0	168883	2726.141975986521	29.06060284499
0	169293	2732.210006086732	35.300176555168
0	169712	2738.741855531184	35.413748351851
0	169811	2740.37855532445	25.879802385887
0	170870	2758.817063287846	57.04007269252
0	171097	2762.081778463911	21.703223139461
0	171782	2771.942265081143	45.800289094622
0	171968	2773.826814379865	35.084958848681
0	172200	2776.740600963642	80.455884413564
0	172481	2783.94294698763	73.040981434854
0	172695	2788.873194068987	26.791415605076
0	173116	2793.204559120044	60.994553033312
0	173150	2793.611500782941	21.669235701798
0	173450	2799.052977270848	76.865032471939
0	173467	2799.587742648448	40.770679360602
0	173533	2800.615816331175	26.78900195131
0	173758	2803.657721748453	26.917120784811
0	174199	2811.021947065373	22.148752996386
0	175024	2823.190826455638	24.13784918479
0	175159	2824.443843567171	20.786121818718
0	175281	2825.587025911034	25.999283262586
0	175530	2828.933492840879	44.990545853249
0	176872	2853.07669365119	59.465192868249
0	176996	2855.348143392356	32.157316936718
0	177130	2857.067684180589	28.13419133971
0	177495	2863.324918308121	37.737892397087
0	178069	2873.479289862298	49.035446295127
0	178094	2873.920956515048	73.305140183873
0	178675	2880.915675128282	27.838981477092
0	178883	2884.324056492479	91.119497372435
0	178983	2886.745293220071	29.677609039482
0	179412	2895.506982028038	84.485034962665
0	179504	2898.27194346462	42.923800072264
0	180112	2906.921476796767	43.596558488646
0	180129	2907.238362050154	26.322686921872
0	180511	2915.017431860127	30.693375367648
0	180919	2922.933484718402	36.188191498331
0	181261	2929.121954420632	55.642664558334
0	181295	2929.25124267505	22.012880624896
0	182320	2944.849243986388	37.927767189621
0	182396	2945.953125835427	72.032169320379
0	182487	2947.658410616474	52.151428588436
0	182719	2951.959450000608	22.708207325558
0	183095	2957.276820104096	59.004876639476
0	183262	2960.928473536656	31.806519116024
0	183504	2965.087733471618	42.154248753216
0	184013	2970.57155917852	55.554127318393
0	184071	2971.534192212796	25.581066377369
0	184088	2971.577411168886	23.919000552412
0	184637	2982.600202396208	37.75095840982
0	185310	2991.350639098517	30.422165561861
0	185460	2993.269226286359	22.697667107839
0	185510	2993.960270283306	28.872536811688
0	185785	2997.095680854569	45.136230853961
0	185802	2997.132038393561	39.855218289465
0	186083	3003.32203296535	31.744621796464
0	187033	3018.869528459584	27.518889361067
0	187050	3019.135485624561	36.535283228353
0	187310	3023.809211335974	29.848941052668
0	187335	3023.937959204696	30.668732918337
0	187394	3024.266547401846	52.73235518905
0	187427	3025.505099099245	28.373060705684
0	188730	3044.370296756295	41.048263790945
0	188888	3045.844445721467	22.035234385493
0	188997	3047.151144649708	28.015659025147
0	189014	3047.204749523329	50.10906866876
0	189071	3047.927231225772	29.057702766188
0	189519	3056.269468188715	32.331508984019
0	190111	3066.56431903796	20.719873316493
0	190894	3078.417064686333	30.489833460561
0	191029	3079.613878968992	35.243582212697
0	191046	3079.636589923729	23.367121735014
0	191285	3083.13036927299	58.863821871144
0	191524	3087.5278788728	40.323129349471
0	192030	3096.167800253472	70.662701154227
0	192163	3098.161205019055	51.010060369347
0	192197	3098.507650762828	20.090586076495
0	192630	3105.784641273751	26.170762304759
0	193535	3119.547801486226	52.983482448266
0	194127	3126.318989117602	38.791110244802
0	194144	3126.390491541864	46.753901618135
0	194161	3126.404392530338	28.243187511283
0	194220	3127.977336792362	44.846967519372
0	194795	3137.848935564948	32.064294291197
0	195369	3147.604494744846	21.200102214508
0	195827	3154.195811221219	27.805319679355
0	196036	3156.379683041268	60.211882787796
0	196102	3158.170544634484	59.662893871656
0	196136	3158.907355153266	39.35955366704
0	196270	3160.28974795676	22.440812391812
0	196345	3161.190552583457	33.213215791095
0	196544	3164.513671297765	38.194682180163
0	197448	3179.594209521329	25.39839830011
0	197600	3181.690467869123	25.310784827855
0	197742	3182.975854405083	35.371359660237
0	198066	3186.586840959108	25.396288375651
0	198099	3187.544001760217	27.254253803457
0	198873	3203.168777127563	44.998232493079
0	199032	3205.703874603491	41.190203305726
0	199108	3206.845575584666	25.155107715543
0	199442	3211.729204831758	52.821849678492
0	200282	3225.266795764422	38.679954805314
0	200657	3231.41555941443	24.569983829764
0	201149	3240.386475141518	34.682600538027
0	201614	3248.771920325455	45.603143197892
0	201747	3251.639404347824	26.372608583402
0	201863	3252.816580416978	21.401021002548
0	202304	3260.195289053739	72.651287293522
0	202520	3264.301315680675	84.707106159346
0	203064	3273.786765246632	62.057560414874
0	203415	3280.861509990688	28.04492957371
0	203432	3281.107655711562	40.721180570044
0	203658	3284.509879334155	20.20856365348
0	204126	3290.97713012044	42.205209794985
0	204890	3305.596129607203	24.734619616515
0	204999	3307.128388448389	26.020732736827
0	205389	3313.165214891118	28.655335556963
0	205480	3315.063530684388	24.086400563948
0	206222	3327.810241287851	22.214111680648
0	206546	3332.478317399283	149.5024629942
0	206796	3334.545975036139	27.41758658775
0	206970	3337.150181153172	23.984966262054
0	207045	3339.751608617112	79.556319563373
0	207346	3344.022504643327	70.235739396695
0	207783	3350.556938571121	22.74669728327
0	208445	3363.664036977967	29.118061941828
0	208511	3364.652742544701	20.630237901374
0	209115	3373.765561323381	41.287243924098
0	209190	3374.597543112703	59.534012428315
0	209322	3377.120352767649	37.368744150537
0	210020	3389.053959042086	137.41455469426
0	210045	3389.149383592225	25.485346614258
0	210144	3390.685478387064	40.128539815943
0	210244	3391.587289819124	54.437108665952
0	210435	3395.677906457594	21.080363344891
0	210777	3401.407546774926	24.287194007277
0	211763	3417.377518580889	25.790228761765
0	211838	3417.703827229483	22.025920771889
0	211896	3418.19448792643	29.140528884344
0	211947	3418.436356423404	29.286972831179
0	212080	3419.746060220366	45.980498896985
0	212278	3422.323023842428	20.915477067502
0	213040	3435.914179710527	45.228701323463
0	213324	3439.694304012616	21.499816086186
0	213424	3440.870973082563	76.218230537862
0	213642	3445.874569532089	26.128509311723
0	214447	3456.924056437114	39.220229207631
0	214597	3458.554334522176	22.640154811649
0	214789	3461.515170422798	43.078813999394
0	215153	3468.392000843604	27.521027761041
0	215276	3470.901020136233	48.577996293805
0	215376	3472.371585238947	26.497015706858
0	216225	3485.166952748333	45.472648735717
0	216468	3489.480329179719	72.10281059883
0	216777	3495.274519376853	38.350462939739
0	216794	3495.485785360955	27.093784517351
0	216944	3498.317907437369	39.763572915193
0	217035	3499.714120864553	28.81310072832
0	217052	3500.005947426538	38.49077700374
0	217954	3512.18061309342	27.013660345087
0	218218	3516.447990976665	20.96220561571
0	218428	3519.198643368549	20.88073593118
0	218889	3527.960501648311	32.685982271458
0	219114	3531.18777863476	41.707449455041
0	219371	3535.731901643381	23.551288549961
0	219780	3541.719817662573	41.713870236035
0	219838	3542.58274623653	23.384102867981
0	220437	3549.65658139281	33.208590416145
0	220513	3552.048220678269	52.334099813716
0	220605	3554.312396008091	26.35189435978
0	221098	3561.850310125046	26.118408481665
0	221257	3564.57778150612	21.99503526959
0	221331	3565.619412077094	93.247826838147
0	221879	3574.300815058395	24.644233665585
0	222212	3580.281032042743	28.232811364474
0	222296	3581.715680353092	39.995862690519
0	222572	3587.011378546592	55.823599911832
0	223281	3597.977327993138	43.664931985047
0	223332	3598.080902548129	36.230592423083
0	223616	3604.071540237155	39.493758731035
0	223650	3604.254956510674	22.539276157582
0	224030	3611.901313109869	24.889934563277
0	224307	3617.056843234917	36.775811192174
0	224324	3617.728198590525	52.108786513431
0	224984	3629.089971822682	24.835015312008
0	225092	3630.274527162119	26.202986924964
0	225141	3631.112934916938	33.032032368809
0	225974	3642.948071794077	31.046758684208
0	225991	3643.340596485011	69.039781426616
0	226124	3645.066102655004	47.088774661866
0	226166	3645.509460713383	28.452617478466
0	226208	3646.104868481608	28.376669891083
0	226590	3652.250119172505	21.975592010386
0	226995	3659.764678169809	30.674706347127
0	227460	3667.135148199068	23.794551714057
0	227591	3668.476690498073	22.371822016465
0	227700	3669.895662725764	24.82956007076
0	227826	3671.575769644876	28.627697850799
0	228270	3677.77583757377	25.525718401265
0	228967	3690.417246730493	44.90778601711
0	228984	3690.646955938511	30.882277768702
0	229026	3690.768794665705	22.292104167632
0	229193	3693.064092375948	61.95115745901
0	229510	3700.066193062251	28.490423417375
0	229752	3703.790806211635	26.014968637865
0	230416	3715.933766771619	46.038104045855
0	230541	3717.790520703658	27.143564765147
0	230931	3723.501526281875	32.73273161617
0	230981	3724.048254746713	23.982061684462
0	231256	3727.121424449098	23.330618237463
0	231583	3734.520128304929	41.456035928981
0	232199	3745.046082548371	27.255561844713
0	232314	3747.372217866117	80.237069667049
0	232398	3748.182609464485	57.765362733992
0	232415	3748.30168346004	24.253428713327
0	232807	3755.186908447519	20.66678014259
0	232832	3755.530804968291	28.409380519193
0	233688	3769.383596583135	21.20098711865
0	234012	3774.437986578826	58.504219807207
0	234281	3778.634849541981	31.262631675864
0	234515	3780.517313264388	25.330404816869
0	235199	3793.623518758136	45.321835298096
0	235382	3795.85914539806	40.328340429769
0	235608	3797.968134432885	52.922051884514
0	235975	3807.376905359714	26.859592095326
0	236000	3807.685150245155	33.247163666329
0	236945	3819.897826332698	21.929691899813
0	237117	3822.128990957733	26.269845559673
0	237513	3830.28667870851	22.909773348796
0	237621	3831.929761633842	24.244611388687
0	237846	3836.519404515835	113.01787823396
0	238459	3845.48243859056	25.584612257862
0	238641	3848.324533374178	54.701014616042
0	238965	3853.397737564003	23.111058855493
0	239033	3854.168358602779	32.039367645046
0	239166	3856.476500692187	24.546739058345
0	239529	3864.590553875571	85.95570433359
0	240301	3873.271531135208	24.94699776103
0	240393	3875.584453019013	39.065048503178
0	240451	3876.35696862744	106.9733720443
0	240708	3881.686043327425	36.203604736865
0	241046	3887.84287081321	33.674512210431
0	241187	3890.169759783852	36.772022219849
0	241221	3890.235747923851	25.64519404828
0	241822	3898.918293093592	42.441792401405
0	242263	3906.642440260739	33.370909125531
0	242604	3912.723949989779	22.554190205927
0	242737	3914.657009231765	38.300040604325
0	242981	3917.940366384328	27.704618460477
0	243064	3919.937086875863	44.35263385685
0	243199	3921.779908439768	22.861615346176
0	243826	3932.462487869232	44.619617056022
0	244232	3940.409342963948	33.766902703209
0	244359	3943.303364847828	25.3629984635
0	244450	3944.446966446002	24.509879570139
0	244753	3949.013066899804	34.356057668039
0	244945	3951.178453526579	69.492410199154
0	246117	3968.916760974139	36.454273104907
0	246201	3970.699655174481	27.396290326653
0	246218	3971.185220059069	58.46127006929
0	246386	3974.381839796773	23.203386270194
0	246460	3975.174780180535	53.394871740767
0	246561	3976.384563030652	35.975220066704
0	246704	3979.957571224169	35.510604778167
0	247020	3984.667687961906	35.654621062102
0	247897	4000.750853935741	29.565633876672
0	248055	4004.994216677934	28.609653647282
0	248123	4005.64120152597	20.973513564064
0	248375	4009.523091607615	40.606330633476
0	248885	4017.809018692615	47.109363518134
0	248986	4019.18024187431	44.798402077537
0	249094	4021.131915931925	41.174344707756
0	249411	4027.2964195647	22.302202886766
0	249642	4029.839755139848	24.198553613878
0	249700	4030.346502921072	55.171722740537
0	250963	4048.963113228161	31.154094535546
0	251119	4052.361529800969	25.065110236269
0	251286	4055.206301898415	34.07438596649
0	252501	4072.430841170459	42.084338249387
0	252543	4073.586840344276	24.623727116115
0	252685	4077.758617905901	58.578376031591
0	252735	4078.278805096731	23.072503198316
0	252752	4078.343036003447	68.819944395832
0	253001	4083.128709175565	82.377855239824
0	253983	4094.800941517114	42.439411716145
0	254033	4095.368614474796	22.937773304337
0	254271	4099.867707503161	26.280867158885
0	254670	4106.663404791262	28.384599694531
0	254704	4106.91835357879	23.789644403225
0	255410	4118.675698375213	40.917080469312
0	255511	4120.051468252044	41.708432248597
0	256135	4129.145981880721	29.27827437756
0	256185	4129.619600981175	34.250986506379
0	256651	4138.070439116595	43.269497599481
0	257035	4143.425016620739	113.58526148089
0	257378	4150.275140078992	31.599441703779
0	257787	4156.374685679925	26.75508469875
0	258392	4166.595564128422	37.449582247701
0	258740	4172.474696860429	65.811292069167
0	258873	4173.754997185213	23.479857106221
0	258947	4175.246393861678	37.175954745083
0	259031	4176.161742341786	69.243388762996
0	259206	4178.103414752336	58.051946500292
0	259438	4181.836505749792	38.411489129053
0	260377	4197.351221666514	40.976535986589
0	260519	4198.885991590239	22.724249248453
0	260733	4202.03577662254	26.789382760862
0	260775	4202.397849926174	35.802285797752
0	261199	4210.889512891789	37.134515706576
0	261318	4212.346910931596	39.872214071167
0	261427	4214.190478470781	36.087063718445
0	261711	4218.464461772738	36.627956022946
0	262046	4223.731245287585	26.380023621071
0	262286	4228.732843997484	29.846852407245
0	262427	4231.308616206383	29.272839583843
0	262601	4233.448590159509	22.55907726772
0	262991	4239.886864770418	27.539953838822
0	263058	4240.593103283547	22.128641510809
0	263099	4241.11324732349	26.922768852709
0	263649	4251.341361081535	27.61011579395
0	263741	4252.590716945402	23.857872947918
0	264356	4263.369197757881	23.482332987463
0	264390	4265.127805209614	24.534701926067
0	264508	4267.130855002128	64.733005075954
0	264559	4267.540335075276	26.427087751786
0	265508	4284.137358645178	31.546641699776
0	265773	4288.332164731247	23.204359521633
0	265890	4290.735270035181	59.426653828798
0	266501	4300.615155443299	49.273794361764
0	266585	4301.772816849257	68.324226689748
0	266753	4305.913024918875	38.782169916747
0	267119	4312.338294954032	21.603024918851
0	267212	4313.268502873983	45.728167798707
0	267444	4316.5402298133	28.208065082053
0	268362	4335.093446237032	71.724248479151
0	268462	4336.647501444052	30.734476525177
0	268504	4337.169593072029	20.629363258729
0	268894	4343.083653417106	41.310836567849
0	268911	4343.251091174439	29.982588300456
0	269087	4345.669750567719	61.532391922541
0	269112	4345.983614206756	33.645319252724
0	269794	4357.95451191461	20.784918842581
0	270252	4366.336364636635	31.242918399603
0	270803	4378.138413371683	35.054759954577
0	271160	4383.935400226299	38.26564965858
0	271387	4389.391485050367	52.743983606315
0	271421	4389.814974606988	46.563883432549
0	271538	4391.618828272909	45.635214066153
0	271796	4397.743239137793	39.788727223183
0	271905	4398.847932860373	98.232777417074
0	272198	4404.199685946839	20.26428572054
0	272745	4413.867699844735	47.5313352081
0	273085	4417.875043453432	20.131804315639
0	273194	4419.859988143826	28.241159870917
0	273318	4423.172112863525	33.780627813158
0	273426	4424.527938518992	20.328252572153
0	273743	4429.946938265324	51.808524893641
0	273760	4430.090502539894	40.275527932906
0	274370	4439.777164862032	21.9021214086
0	274536	4442.502571954486	43.654639094113
0	274612	4443.57477981243	20.402666948905
0	275170	4452.569371161945	28.041432642953
0	275777	4463.741234447778	33.650731907884
0	276309	4470.599186022707	28.096614068221
0	276326	4470.743998954002	56.876299109267
0	276400	4471.719998965763	31.942834103731
0	276600	4476.159532588711	23.590161426766
0	276959	4481.109531549386	37.534751736956
0	277468	4489.514010658636	25.772776210858
0	277576	4491.155365451639	71.295377307813
0	277918	4497.112777592406	26.368778638404
0	278093	4501.527916612117	20.418385062731
0	278419	4507.040187285695	35.320188319932
0	278934	4515.51005688907	39.350524300359
0	279585	4526.975934579382	25.448017967265
0	279803	4529.414478217619	38.25911276598
0	280053	4533.468372963243	43.954362304607
0	280708	4543.824428720507	73.2252426978
0	280940	4547.250924704572	20.27499012519
0	281047	4549.248514871499	52.135737279093
0	281322	4553.549278378695	123.60234011337
0	281715	4559.281866527793	43.771809638723
0	281832	4561.525827106339	32.11134888872
0	282318	4569.566063481253	25.741634760746
0	282401	4571.027636677879	63.987449392184
0	282592	4573.64452694252	26.393602237948
0	282701	4574.635822122156	21.086543743461
0	283436	4585.202924774019	51.734551810776
0	283845	4594.064233891654	23.036597213775
0	283887	4594.464360008388	45.215845136889
0	283912	4595.245844740102	20.610022617946
0	284328	4602.667434530259	43.385568002466
0	284944	4613.416084804773	43.85002132352
0	284961	4614.077659390661	52.551832284322
0	285121	4615.719026029131	20.473181289029
0	285146	4616.36528511549	31.162360341471
0	285389	4619.910096921656	46.265569979136
0	285662	4623.900059910258	21.232625379999
0	285896	4627.878034347907	33.413674339519
0	286004	4629.136880095466	35.072646203812
0	286519	4638.814435654125	22.449150538635
0	286712	4642.212080506886	22.30198358523
0	286947	4645.584360753181	31.50670136252
0	287115	4647.318961332153	23.418901421895
0	288191	4667.872018132984	52.152992103853
0	288208	4667.952111403463	22.367750650282
0	288242	4668.248445476579	54.832360671806
0	288510	4671.51711655899	24.198155226837
0	289102	4678.739361989261	49.602481893795
0	289177	4679.720452528121	51.842418180214
0	290011	4692.361122337591	24.489104204607
0	290211	4696.98647537113	25.46935881214
0	290611	4702.467086064938	22.746633536817
0	290763	4704.33568377778	25.596321788519
0	290788	4705.707462880759	37.45901740418
0	291190	4713.031037606722	20.669915269131
0	292007	4726.582006712983	29.595531341853
0	292141	4729.961088359258	91.146652705133
0	292522	4735.962083492888	30.254620612129
0	292765	4741.397014532453	99.184934025567
0	293191	4747.191961893138	34.160924286416
0	293583	4754.68355738243	52.216471317492
0	293676	4756.160083669665	26.198995310407
0	293818	4758.157774820743	53.822091042963
0	294051	4762.902342356088	36.320335643105
0	294310	4768.258074982165	32.295991489277
0	294646	4773.280829805436	31.883815272983
0	294737	4775.01994630844	20.33638892601
0	295078	4778.213202268813	110.26109086535
0	295120	4778.388733108333	31.196771215195
0	295137	4778.436579896618	22.276496226953
0	295809	4791.06626373274	32.908488911997
0	296200	4797.519925140808	29.261850158643
0	296409	4801.341242309037	26.321296000597
0	296696	4805.532629285627	32.251799480191
0	296936	4811.066270518727	32.677537410394
0	297163	4814.612538930729	36.175959034111
0	297188	4814.837274408357	23.771010675617
0	297424	4819.947066058228	41.733863789415
0	297593	4822.79972247944	25.279797338632
0	297736	4824.216515800877	22.87527349184
0	298169	4830.228724199908	24.696094914281
0	298868	4841.332471549294	21.385405491066
0	299091	4843.69068235169	28.853407943333
0	299423	4850.379009451799	39.312738933072
0	299740	4854.260137753059	31.460415273619
0	300214	4861.421633582577	98.519291226489
0	300706	4869.026481771213	38.797757571305
0	300765	4870.02636757269	45.809851771813
0	300982	4873.820058249223	23.441048797424
0	301067	4875.53514092612	21.275003173061
0	301550	4884.103381151155	42.770909601861
0	301923	4889.861047967625	20.834566196412
0	302473	4897.05475338605	82.442214455321
0	302490	4897.076460476342	53.385778124652
0	302897	4901.280832268878	39.859198686301
0	303267	4909.101662958032	39.075295385342
0	303493	4911.807339153645	21.94629118602
0	303858	4917.574642573399	20.519889187349
0	303900	4918.608252542049	43.073111615929
0	303950	4918.801279773849	21.724819297507
0	303967	4919.094673827958	34.991292676803
0	304558	4930.584782793642	21.48311983561
0	305377	4942.794755511197	30.987416357552
0	305503	4944.116262347611	42.835430078733
0	305875	4951.269301539873	77.44924329065
0	306174	4956.111673372975	25.526890579333
0	306415	4958.875719014653	40.267466472604
0	306449	4959.87339151958	41.072111745731
0	307212	4970.270562116889	51.175888288931
0	307372	4972.624498441506	28.508236093895
0	307797	4979.452247714041	28.182946174168
0	307889	4980.476829394406	37.682073883209
0	308072	4982.96139409763	23.08800257805
0	308985	4997.589760074105	27.319197957216
0	309044	4999.39906275749	26.774564315984
0	309403	5004.075980134175	86.501337560776
0	309628	5007.932056946795	49.056337932142
0	309878	5011.357333668146	31.905085954105
0	309920	5012.030473662513	31.553644268107
0	310387	5019.316621939523	63.204948566548
0	310412	5019.59155307564	22.001793001535
0	310569	5022.261686747541	39.300292649911
0	311130	5031.372981920699	31.973919163209
0	311344	5034.912314938328	26.980257991533
0	311824	5043.09620234028	23.50464926464
0	312458	5054.231128236153	34.91450629663
0	312641	5057.420109271532	22.507794333204
0	312700	5058.736722088309	27.36374016761
0	312775	5059.85686534738	55.780885213205
0	313026	5063.872343747508	20.776141407228
0	313333	5070.831638036266	59.47430436812
0	314101	5082.896258906118	60.634572158577
0	314143	5083.322402958465	23.465537611085
0	314267	5084.973775778816	27.553666507284
0	314650	5091.334398581468	32.597676493159
0	314717	5092.482628750451	28.610285002943
0	315500	5105.238074305215	22.341815399097
0	315551	5105.437373695717	22.114970737252
0	315601	5106.243844468667	35.412206432401
0	315759	5107.882410319788	53.651282083635
0	316124	5112.448213172687	21.113814591219
0	316666	5120.782731330855	28.300102580404
0	317877	5141.512953611689	56.539177832873
0	318095	5145.231188008914	133.2007143464
0	318195	5147.130778840447	39.248368520659
0	318703	5157.021178173823	51.783103868608
0	318762	5158.304691819191	45.856478646504
0	318796	5158.567502210445	37.78477087959
0	319312	5165.33251635554	59.088671886873
0	319843	5175.050334330442	27.919555489995
0	320052	5178.302095398019	21.280917224196
0	320201	5179.75594487843	21.451253059239
0	320689	5185.788508291021	80.351134595304
0	320706	5185.888474599365	27.32097238892
0	320847	5189.215914274403	47.702960662714
0	321230	5195.202025283214	29.869508927674
0	321795	5205.3086400343	25.55269515587
0	321945	5207.145218007548	32.094883677106
0	322013	5208.107892680195	22.21941808083
0	322888	5221.965057765226	32.749143490823
0	323194	5225.850689943098	20.542049908798
0	323550	5229.496609783979	34.294584500765
0	323633	5230.891373243776	23.746155236228
0	324724	5244.980121749999	36.872229069804
0	324890	5247.903449160234	62.114940869213
0	325181	5253.581690708012	75.279595309993
0	325491	5256.815338669775	30.964648726677
0	325641	5259.54082559375	30.044215809771
0	325692	5260.119943911019	38.154886145793
0	325826	5262.183296549739	31.291923305963
0	325843	5262.229834226026	116.99864621711
0	326291	5270.010049798479	22.106600638245
0	326482	5274.038169155919	20.456478447907
0	326791	5281.294679314164	21.174735403145
0	327134	5285.614560321464	23.384726095438
0	327192	5287.133894939144	27.593069345394
1	838	9.464393550669	9.464393550669
1	1552	20.762791002483	11.298397451814
1	4047	60.787305874009	40.024514871526
1	4995	76.953095239727	16.165789365718
1	5746	87.669281579695	10.716186339968
1	6962	106.056069395463	18.386787815768
1	7629	119.571044500987	13.514975105524
1	8681	136.899471180212	17.328426679225
1	9523	153.665864471152	16.76639329094
1	10733	174.872274063307	21.206409592155
1	11497	186.519076373411	11.646802310104
1	14007	225.933654474564	39.414578101153
1	14572	236.594781699642	10.661127225078
1	16114	261.483221222283	24.888439522641
1	17245	277.865309436547	16.382088214264
1	19498	317.238814773169	39.373505336622
1	22337	363.603741873256	46.364927100087
1	23398	381.489478102847	17.885736229591
1	24183	393.869276121891	12.379798019044
1	24802	403.922014414626	10.052738292735
1	25351	414.53950318149	10.617488766864
1	26101	431.717508976597	17.178005795107
1	26876	443.396717680207	11.67920870361
1	28201	462.649895773753	19.253178093546
1	29208	479.018128165476	16.368232391723
1	32138	524.403677582288	45.385549416812
1	33246	542.232445195376	17.828767613088
1	34087	554.607591017556	12.37514582218
1	37126	603.444043810001	48.836452792445
1	40419	651.626914828899	48.182871018898
1	41471	666.545250581149	14.91833575225
1	42879	691.765776926256	25.220526345107
1	43957	712.282227319071	20.516450392815
1	45014	728.651253744318	16.369026425247
1	47411	770.441699443795	41.790445699477
1	48498	788.597008213791	18.155308769996
1	50250	815.192994810033	26.595986596242
1	53206	862.694456084941	47.501461274908
1	53978	874.240764794651	11.54630870971
1	56346	913.812913948484	39.572149153833
1	60882	990.017022102612	76.204108154128
1	65192	1060.303234434898	70.286212332286
1	66501	1081.687433596755	21.384199161857
1	68486	1120.7320990537	39.044665456945
1	69715	1136.493436775253	15.761337721553
1	72433	1183.212189438393	46.71875266314
1	73465	1201.405529805973	18.19334036758
1	74804	1220.797945299591	19.392415493618
1	76116	1243.027542435354	22.229597135763
1	77178	1260.897344979251	17.869802543897
1	78601	1282.912442666222	22.015097686971
1	81448	1326.999576822791	44.087134156569
1	82204	1338.437358928695	11.437782105904
1	83833	1364.311286319037	25.873927390342
1	85499	1391.534952660215	27.223666341178
1	86286	1403.115771472544	11.580818812329
1	87602	1426.709987518056	23.594216045512
1	90159	1469.258013709855	42.548026191799
1	93637	1523.420819344831	54.162805634976
1	94696	1538.658499023818	15.237679678987
1	98463	1600.587374939252	61.928875915434
1	99795	1621.157955402028	20.570580462776
1	100495	1631.466061020706	10.308105618678
1	102979	1671.69185276735	40.225791746644
1	104008	1686.879022572279	15.187169804929
1	104933	1701.405142296917	14.526119724638
1	106949	1734.209966477975	32.804824181058
1	111095	1803.892010999678	69.682044521703
1	112677	1824.70509960618	20.813088606502
1	116593	1891.174757316789	66.469657710609
1	117997	1912.702974117581	21.528216800792
1	119423	1936.00942563015	23.306451512569
1	120144	1947.808409685194	11.798984055044
1	121530	1969.661704519793	21.853294834599
1	126418	2049.651986499568	79.990281979775
1	127198	2061.008241835991	11.356255336423
1	128540	2081.077996925981	20.06975508999
1	129435	2098.903013351767	17.825016425786
1	130937	2123.646465180643	24.743451828876
1	134381	2179.540203977551	55.893738796908
1	135663	2198.348197455722	18.807993478171
1	136774	2216.66370416815	18.315506712428
1	138446	2244.414699815978	27.750995647828
1	139313	2255.746989431457	11.332289615479
1	140080	2268.095605437221	12.348616005764
1	142913	2312.100165281452	44.004559844231
1	146342	2371.248824074653	59.148658793201
1	147057	2383.708361401564	12.459537326911
1	148964	2413.94721734788	30.238855946316
1	149529	2424.565753511686	10.618536163806
1	150654	2439.426488049397	14.860734537711
1	152550	2471.60392013011	32.177432080713
1	155269	2514.338310180806	42.734390050696
1	155984	2524.394529520915	10.056219340109
1	158320	2561.958747489316	37.564217968401
1	160710	2596.026093938541	34.067346449225
1	162649	2624.008694408892	27.982600470351
1	163725	2640.527151292077	16.518456883185
1	166990	2696.696625467502	56.169474175425
1	170688	2755.261603527837	58.564978060335
1	173907	2806.952973102102	51.691369574265
1	175100	2823.900176598508	16.947203496406
1	175887	2834.759334452307	10.859157853799
1	177013	2855.386527139504	20.627192687197
1	177709	2868.421883681309	13.035356541805
1	178523	2879.103091175352	10.681207494043
1	179140	2889.340688130988	10.237596955636
1	180659	2918.368074716832	29.027386585844
1	181733	2936.141928252831	17.773853535999
1	182545	2949.129042349456	12.987114096625
1	183287	2961.554673784501	12.425631435045
1	184402	2978.613572200733	17.058898416232
1	187067	3019.142351658026	40.528779457293
1	187941	3033.699098121514	14.556746463488
1	190244	3068.280365012677	34.581266891163
1	192580	3104.600764071596	36.320399058919
1	193426	3118.092338336104	13.491574264508
1	195302	3146.954038913225	28.861700577121
1	196435	3163.059641410113	16.105602496888
1	197225	3175.413381985678	12.353740575565
1	200249	3224.283982110449	48.870600124771
1	201581	3248.420636718646	24.136654608197
1	203641	3284.390293656734	35.969656938088
1	205648	3317.531839705229	33.141546048495
1	206331	3328.363118297477	10.831278592248
1	207222	3341.867109745548	13.503991448071
1	208804	3368.683566013794	26.816456268246
1	210269	3391.913049501599	23.229483487805
1	211496	3415.018818091142	23.105768589543
1	214872	3462.076624022651	47.057805931509
1	216677	3493.252443590663	31.175819568012
1	220880	3558.740770221448	65.488326630785
1	222163	3579.123203903698	20.38243368225
1	223716	3605.581932697675	26.458728793977
1	225241	3632.735718325927	27.153785628252
1	226033	3643.779647573239	11.043929247312
1	227095	3661.283649332244	17.504001759005
1	228012	3673.437131182731	12.153481850487
1	229927	3706.055801168593	32.618669985862
1	231749	3736.876275117474	30.820473948881
1	232707	3753.584890435998	16.708615318524
1	234758	3785.207730505435	31.622840069437
1	236191	3810.22467222701	25.016941721575
1	237306	3825.513630359317	15.288958132307
1	238166	3841.095108236133	15.581477876816
1	239916	3869.81562446751	28.720516231377
1	241570	3895.036871567917	25.221247100407
1	242222	3905.520400670922	10.483529103005
1	243341	3924.175872931621	18.655472260699
1	244207	3940.215516851678	16.039643920057
1	245079	3952.846339751374	12.630822899696
1	246738	3980.106057503025	27.259717751651
1	247465	3991.383460441685	11.27740293866
1	251484	4057.815450210694	66.431989769009
1	252233	4068.805928698929	10.990478488235
1	253424	4088.810141983294	20.004213284365
1	254537	4104.97126839274	16.161126409446
1	256583	4137.522063088919	32.550794696179
1	257594	4154.002555623441	16.480492534522
1	259115	4176.817823108968	22.815267485527
1	261057	4208.152304403188	31.33448129422
1	265924	4291.082041582764	82.929737179576
1	268029	4328.629964751103	37.547923168339
1	270977	4380.478942582258	51.848977831155
1	272787	4414.64040132695	34.161458744692
1	273937	4431.8847892426	17.24438791565
1	274944	4449.001090514109	17.116301271509
1	275553	4459.847683235701	10.846592721592
1	277392	4488.487781845901	28.6400986102
1	278752	4512.231107020918	23.743325175017
1	280783	4544.268081859025	32.036974838107
1	282065	4566.500913932604	22.232832073579
1	283226	4582.379883808655	15.878969876051
1	285970	4628.830231920735	46.45034811208
1	287642	4654.254285108119	25.424053187384
1	289085	4678.737360919409	24.48307581129
1	290695	4703.610917282558	24.873556363149
1	291248	4714.712694403175	11.101777120617
1	292166	4730.188544432606	15.475850029431
1	293051	4744.692518976443	14.503974543837
1	293642	4755.589987844569	10.897468868126
1	295188	4779.672265926573	24.082278082004
1	302250	4893.363849728513	113.69158380194
1	304200	4923.008966605101	29.645116876588
1	307263	4971.185005992824	48.176039387723
1	308240	4986.137920723193	14.952914730369
1	309720	5009.351209833689	23.213289110496
1	311767	5041.914460668729	32.56325083504
1	312574	5056.327183051358	14.412722382629
1	313167	5067.579646142322	11.252463090964
1	313944	5079.560716141391	11.981069999069
1	316624	5120.538215194221	40.97749905283
1	317495	5134.369154096852	13.830938902631
1	318078	5145.20940561009	10.840251513238
1	319155	5163.236765856239	18.027360246149
1	320258	5180.077347493441	16.840581637202
1	321114	5192.819225154581	12.74187766114
1	322514	5216.736070215656	23.916845061075
1	323468	5228.709746661801	11.973676446145
1	327334	5288.96527807192	60.255531410119

