version 2
run General-2-20220601-20:30:54-3820
attr configname General
attr datetime 20220601-20:30:54
attr experiment General
attr inifile omnetpp.ini
attr iterationvars $0=1000
attr iterationvarsf 1000-
attr measurement $0=1000
attr network Lab3
attr processid 3820
attr repetition 0
attr replication #0
attr resultdir results
attr runnumber 2
attr seedset 2
param **.num_of_hosts 10
param **.test_arp_requests 1000
param **.next_event_par 1.0/0.5
param **.pck_len_mean 1000
param **.pck_len_stddev 150
param **.pck_len_min 26
param **.pck_len_max 1480
param **.host[9].eth.arp_ttl 10s
param **.host[*].eth.arp_ttl 20s
param **.aging_time 1s

vector 0 Lab3.host[0].eth interarrivalTime0:vector ETV
attr interpolationmode none
vector 1 Lab3.host[0].eth interarrivalTime1:vector ETV
attr interpolationmode none
0	122	0	0
0	1140	15.373480203688	15.373480203688
0	2568	39.032185046138	23.65870484245
0	3898	58.439662332002	19.407477285864
0	8797	138.393387951372	79.95372561937
0	10818	171.454056345605	33.060668394233
0	13127	208.773487864712	37.319431519107
0	13976	222.431867057874	13.658379193162
0	15426	243.808202504355	21.376335446481
0	16334	257.034510903962	13.226308399607
0	17657	277.3491309577	20.314620053738
0	20224	317.612086972897	40.262956015197
0	21698	338.717565076653	21.105478103756
0	24538	387.859522435913	49.14195735926
0	25409	399.055555713433	11.19603327752
0	28575	450.767647157674	51.712091444241
0	29662	470.467198448018	19.699551290344
0	30706	484.079926540168	13.61272809215
0	31491	496.400330919158	12.32040437899
0	33136	523.712675991184	27.312345072026
0	34079	537.568213367039	13.855537375855
0	35338	559.709352628149	22.14113926111
0	38817	613.215317383378	53.505964755229
0	39734	627.219233567215	14.003916183837
0	40607	638.515344135385	11.29611056817
0	41532	657.755978433328	19.240634297943
0	47016	742.324535851109	84.568557417781
0	47943	758.040158850896	15.715622999787
0	50266	789.545684609292	31.505525758396
0	54959	862.525819839928	72.980135230636
0	56244	881.759583040051	19.233763200123
0	57425	899.075689830297	17.316106790246
0	58785	923.490684994512	24.414995164215
0	60577	948.499392584639	25.008707590127
0	64410	1009.704007610066	61.204615025427
0	72469	1142.601774246363	132.8977666363
0	74531	1173.246230481996	30.644456235633
0	75820	1195.50091316854	22.254682686544
0	77931	1227.333173783246	31.832260614706
0	79447	1251.536251111069	24.203077327823
0	83082	1306.195568435778	54.659317324709
0	84446	1327.480898261992	21.285329826214
0	85498	1342.837439049388	15.356540787396
0	87232	1375.094104615694	32.256665566306
0	94865	1500.687983597589	125.5938789819
0	96776	1536.725815344284	36.037831746695
0	99149	1575.054595483401	38.328780139117
0	100474	1595.976602104201	20.9220066208
0	101815	1615.933214256907	19.956612152706
0	102488	1627.475400705817	11.54218644891
0	103351	1643.793850691471	16.318449985654
0	104967	1667.383821425016	23.589970733545
0	105890	1683.049717602232	15.665896177216
0	107945	1714.693237317982	31.64351971575
0	109477	1737.07031982436	22.377082506378
0	110257	1749.857367287755	12.787047463395
0	110943	1762.215629277886	12.358261990131
0	112659	1789.443436248421	27.227806970535
0	115869	1841.083088212953	51.639651964532
0	118139	1878.916516492659	37.833428279706
0	118796	1891.838876798812	12.922360306153
0	121522	1933.075238189645	41.236361390833
0	124527	1984.308487680278	51.233249490633
0	126235	2012.858266721973	28.549779041695
0	130531	2081.969850667875	69.111583945902
0	131515	2096.881268107272	14.911417439397
0	134172	2139.444892503232	42.56362439596
0	135310	2156.90459940468	17.459706901448
0	137023	2184.914153144426	28.009553739746
0	137976	2201.218400135302	16.304246990876
0	139471	2226.735474668785	25.517074533483
0	140722	2245.471307705135	18.73583303635
0	145024	2321.011748147862	75.540440442727
0	145659	2331.304819097397	10.293070949535
0	147676	2365.078424876404	33.773605779007
0	148480	2379.461385845983	14.382960969579
0	149310	2390.321374357435	10.859988511452
0	154213	2466.646756073745	76.32538171631
0	154914	2478.3018615357	11.655105461955
0	157451	2516.802158139881	38.500296604181
0	161477	2578.386495777755	61.584337637874
0	163775	2616.354356554685	37.96786077693
0	164544	2628.67345036991	12.319093815225
0	168112	2681.912768542669	53.239318172759
0	169603	2703.456582238408	21.543813695739
0	173429	2763.876922808388	60.42034056998
0	174112	2777.813700485219	13.936777676831
0	175375	2797.222871218868	19.409170733649
0	176850	2820.079051814773	22.856180595905
0	177560	2832.837277753259	12.758225938486
0	179283	2860.307268756253	27.469991002994
0	181964	2900.111304881709	39.804036125456
0	182749	2913.468776988325	13.357472106616
0	186668	2978.725466086601	65.256689098276
0	190373	3043.338588437984	64.613122351383
0	191363	3059.852810351472	16.514221913488
0	192315	3072.98205423621	13.129243884738
0	193096	3084.509083289896	11.527029053686
0	194161	3099.689993016813	15.180909726917
0	195094	3114.420129924119	14.730136907306
0	196075	3130.006994321499	15.58686439738
0	196802	3141.018552744008	11.011558422509
0	199416	3183.502697548506	42.484144804498
0	200366	3197.358437796911	13.855740248405
0	201646	3218.976190603119	21.617752806208
0	202898	3242.533982325537	23.557791722418
0	204551	3267.53618181458	25.002199489043
0	206215	3296.407983491218	28.871801676638
0	207032	3308.36553650272	11.957553011502
0	207593	3318.819348296112	10.453811793392
0	208443	3330.746817275708	11.927468979596
0	210528	3366.694598744446	35.947781468738
0	211256	3377.35954589361	10.664947149164
0	214472	3429.804559716168	52.445013822558
0	215170	3440.039133058246	10.234573342078
0	216204	3456.507350683682	16.468217625436
0	219407	3506.960566528832	50.45321584515
0	221124	3536.109495344721	29.148928815889
0	221717	3548.938366021566	12.828870676845
0	222508	3559.93302354949	10.994657527924
0	223568	3576.594721280107	16.661697730617
0	226086	3615.680079199251	39.085357919144
0	226983	3630.390757393125	14.710678193874
0	228974	3661.975919927399	31.585162534274
0	230865	3692.257824138228	30.281904210829
0	233963	3744.711029833132	52.453205694904
0	234597	3756.507777984264	11.796748151132
0	236501	3787.4951836638	30.987405679536
0	239246	3831.818073034774	44.322889370974
0	240598	3855.567236054213	23.749163019439
0	241764	3874.670802862609	19.103566808396
0	242444	3886.346731750679	11.67592888807
0	243126	3897.665689543744	11.318957793065
0	244010	3910.006309895082	12.340620351338
0	246028	3939.933579272311	29.927269377229
0	248866	3987.929514767656	47.995935495345
0	251291	4025.181036822966	37.25152205531
0	253217	4055.471490583581	30.290453760615
0	255975	4098.645715963732	43.174225380151
0	257052	4116.775492046713	18.129776082981
0	257870	4129.450749329559	12.675257282846
0	259069	4150.48184861573	21.031099286171
0	260285	4170.475097344711	19.993248728981
0	260994	4182.806915353573	12.331818008862
0	266042	4267.301699803951	84.494784450378
0	270031	4332.537817894595	65.236118090644
0	270750	4344.011002217117	11.473184322522
0	272870	4378.894668238051	34.883666020934
0	273536	4390.772811466344	11.878143228293
0	274254	4403.847720574893	13.074909108549
0	276514	4435.903575572608	32.055854997715
0	280420	4500.03044964472	64.126874072112
0	281629	4519.430018253794	19.399568609074
0	283263	4546.12989997274	26.699881718946
0	284015	4557.287021298795	11.157121326055
0	285488	4578.223132847966	20.936111549171
0	286558	4597.415394790923	19.192261942957
0	287259	4608.396906782376	10.981511991453
0	289084	4639.300726868022	30.903820085646
0	290262	4658.233083891318	18.932357023296
0	291820	4683.656200097806	25.423116206488
0	294500	4721.341076579794	37.684876481988
0	295693	4741.057414309928	19.716337730134
0	296908	4764.08013238563	23.022718075702
0	297702	4774.95370686668	10.87357448105
0	299681	4805.83707511575	30.88336824907
0	300382	4816.654973733928	10.817898618178
0	301665	4838.847754352787	22.192780618859
0	303066	4858.812545148722	19.964790795935
0	303664	4869.732355516273	10.919810367551
0	304854	4885.97174470936	16.239389193087
0	306559	4913.501340164248	27.529595454888
0	308407	4943.856710353425	30.355370189177
0	311657	4998.000842492801	54.144132139376
0	312634	5014.323313773653	16.322471280852
0	313448	5028.118260579032	13.794946805379
0	314376	5045.888300553134	17.770039974102
0	317509	5095.501779078277	49.613478525143
0	318155	5105.922921621724	10.421142543447
0	319373	5125.965222001013	20.042300379289
0	321686	5164.062912125355	38.097690124342
0	323193	5188.779482137546	24.716570012191
0	326157	5232.814826310153	44.035344172607
0	326940	5243.616345279259	10.801518969106
0	329182	5276.185786709729	32.56944143047
0	330771	5301.897498846022	25.711712136293
0	331772	5316.529380116038	14.631881270016
0	334211	5361.294654827639	44.765274711601
0	335725	5383.348761324382	22.054106496743
0	336761	5400.608629407695	17.259868083313
0	337762	5415.744834053915	15.13620464622
0	339497	5440.491739855725	24.74690580181
0	341984	5478.851451054635	38.35971119891
0	342717	5490.7949723427	11.943521288065
0	343483	5502.682845307034	11.887872964334
0	344216	5514.955347241661	12.272501934627
0	345594	5536.719676168866	21.764328927205
0	346668	5552.309106707181	15.589430538315
0	351918	5638.516566604827	86.207459897646
0	352676	5651.871228922032	13.354662317205
0	354882	5684.321354229174	32.450125307142
0	356625	5713.431058458194	29.10970422902
0	363951	5827.067906095784	113.63684763759
0	364652	5837.136394880286	10.068488784502
0	366379	5861.736292456786	24.5998975765
0	367137	5874.661412763571	12.925120306785
0	369509	5909.997179910106	35.335767146535
0	371366	5937.441918078387	27.444738168281
0	372524	5957.055986637147	19.61406855876
0	373231	5969.328318951946	12.272332314799
0	374279	5987.645772662249	18.317453710303
0	375566	6011.472329812481	23.826557150232
0	377750	6049.499222977073	38.026893164592
0	379747	6079.512021748397	30.012798771324
0	381760	6113.096263356757	33.58424160836
0	385476	6170.216894384584	57.120631027827
0	386265	6181.886916187131	11.670021802547
0	386880	6193.791242455083	11.904326267952
0	388710	6223.295215228814	29.503972773731
0	389520	6236.74182625507	13.446611026256
0	390209	6249.810768053551	13.068941798481
0	391351	6271.512115413891	21.70134736034
0	393000	6295.94808242675	24.435967012859
0	394999	6328.08696419155	32.1388817648
0	401531	6433.167121552809	105.08015736126
0	403639	6466.452393337228	33.285271784419
0	405129	6489.03336941315	22.580976075922
0	406092	6505.854119234949	16.820749821799
0	409631	6558.514469980974	52.660350746025
0	411567	6588.447884052113	29.933414071139
0	413294	6614.155958662199	25.708074610086
0	416532	6670.014097810834	55.858139148635
0	419483	6722.810539118292	52.796441307458
0	420618	6739.069295139709	16.258756021417
0	421801	6758.027891553819	18.95859641411
0	425770	6819.790189242351	61.762297688532
0	427430	6844.329678378036	24.539489135685
0	428021	6854.396779742293	10.067101364257
0	430112	6886.723014796781	32.326235054488
0	431200	6902.891848572462	16.168833775681
0	432884	6930.796336165736	27.904487593274
0	434495	6956.916787924301	26.120451758565
0	437311	7003.507806267219	46.591018342918
0	438292	7018.093538584296	14.585732317077
0	441161	7063.478205733237	45.384667148941
0	444348	7114.756625248985	51.278419515748
0	445175	7127.833046080113	13.076420831128
0	447577	7164.450305183292	36.617259103179
0	449183	7189.552824997729	25.102519814437
0	450911	7217.354095196464	27.801270198735
0	451716	7230.284370898494	12.93027570203
0	452583	7245.107628211301	14.823257312807
0	455282	7288.873391044965	43.765762833664
0	456182	7304.070635984858	15.197244939893
0	457040	7321.792428047458	17.7217920626
0	457900	7333.524865319164	11.732437271706
0	458758	7347.942274539771	14.417409220607
0	459642	7362.440646171361	14.49837163159
0	462611	7409.84579218428	47.405146012919
0	468405	7503.90799109631	94.06219891203
0	469789	7523.963331064781	20.055339968471
0	473372	7579.560710253298	55.597379188517
0	475129	7610.080382006288	30.51967175299
0	476225	7627.323020118271	17.242638111983
0	478356	7658.739022841518	31.416002723247
0	479398	7675.694044256971	16.955021415453
0	484809	7761.043439993608	85.349395736637
0	485714	7777.089362547031	16.045922553423
0	486492	7787.845686627225	10.756324080194
0	487267	7802.613456357876	14.767769730651
0	488509	7820.889930079064	18.276473721188
0	490647	7862.88175212635	41.991822047286
0	491746	7879.063140793397	16.181388667047
0	492959	7898.327819927759	19.264679134362
0	493670	7908.639447541718	10.311627613959
0	494876	7926.727242768079	18.087795226361
0	496493	7953.02152508934	26.294282321261
0	497986	7977.57759302584	24.5560679365
0	499817	8006.525464267878	28.947871242038
0	500896	8023.253721133602	16.728256865724
0	501744	8036.020941219853	12.767220086251
0	502868	8055.747895888144	19.726954668291
0	506668	8120.395444270892	64.647548382748
0	508233	8144.718094718388	24.322650447496
0	509210	8161.802349675102	17.084254956714
0	511823	8199.819014777473	38.016665102371
0	512707	8214.71809413731	14.899079359837
0	514288	8240.354326053856	25.636231916546
0	516211	8274.358471189935	34.004145136079
0	517598	8296.182998054522	21.824526864587
0	518364	8308.676248398169	12.493250343647
0	520515	8347.094676700773	38.418428302604
0	523254	8392.0155163331	44.920839632327
0	524284	8410.746826489911	18.731310156811
0	525275	8426.578762474063	15.831935984152
0	529594	8496.815281967403	70.23651949334
0	532781	8545.493459416481	48.678177449078
0	533689	8559.948372907694	14.454913491213
0	534900	8581.570533367007	21.622160459313
0	536568	8605.154587260174	23.584053893167
0	538323	8630.925696584094	25.77110932392
0	541113	8675.115316926018	44.189620341924
0	542722	8698.732238034062	23.616921108044
0	543509	8712.156586183221	13.424348149159
0	544607	8729.457244537668	17.300658354447
0	545332	8740.815381526507	11.358136988839
0	546667	8760.567950843782	19.752569317275
0	548263	8786.18761898929	25.619668145508
0	549021	8797.377496241598	11.189877252308
0	549673	8807.718115797468	10.34061955587
0	551884	8839.157190489132	31.439074691664
0	552384	8849.293861939514	10.136671450382
0	553011	8860.504826892653	11.210964953139
0	554984	8895.841406563325	35.336579670672
0	555866	8910.276913484898	14.435506921573
0	556764	8925.831219536479	15.554306051581
0	562125	9016.247754119792	90.416534583313
0	564243	9050.582155774178	34.334401654386
0	565792	9074.60769477411	24.025538999932
0	566906	9095.506768615413	20.899073841303
0	568037	9114.447322836355	18.940554220942
0	569004	9129.46906534256	15.021742506205
0	569928	9141.63710634757	12.16804100501
0	571005	9161.575168551324	19.938062203754
0	573522	9202.92128360374	41.346115052416
0	574586	9220.815913540742	17.894629937002
0	578979	9287.031380145795	66.215466605053
0	580246	9307.14569226465	20.114312118855
0	581041	9318.607292481121	11.461600216471
0	583371	9357.918263896246	39.310971415125
0	584355	9373.890204313192	15.971940416946
0	585031	9385.698617857302	11.80841354411
0	586395	9407.220450618359	21.521832761057
0	589615	9458.982976601964	51.762525983605
0	596213	9569.708630568826	110.72565396686
0	597073	9583.064053213696	13.35542264487
0	597740	9593.471678130542	10.407624916846
0	599543	9623.112349930067	29.640671799525
0	601240	9649.726973939324	26.614624009257
0	602041	9663.133635660914	13.40666172159
0	603424	9685.30541830402	22.171782643106
0	604100	9696.560702161214	11.255283857194
0	604887	9711.688873321855	15.128171160641
0	605903	9726.649972695399	14.961099373544
0	607042	9746.76206430497	20.112091609571
0	608136	9766.907814177241	20.145749872271
0	609322	9789.830629118213	22.922814940972
0	610098	9802.38959048967	12.558961371457
0	611576	9827.321482162389	24.931891672719
0	614778	9874.828270417187	47.506788254798
0	616800	9908.760291219943	33.932020802756
0	618107	9928.465340338016	19.705049118073
0	621332	9978.421037530434	49.955697192418
0	622241	9994.362122130511	15.941084600077
0	623799	10017.719745359605	23.357623229094
0	625057	10039.982458008537	22.262712648932
0	627762	10081.984755935737	42.0022979272
0	628777	10100.013100796549	18.028344860812
0	629643	10113.870043803645	13.856943007096
0	631056	10133.710811981857	19.840768178212
0	633949	10179.626757476191	45.915945494334
0	635948	10213.0258185509	33.399061074709
0	636759	10223.314953673028	10.289135122128
0	638326	10248.787189447575	25.472235774547
0	639839	10269.432826820145	20.64563737257
0	640822	10287.227260202141	17.794433381996
0	642518	10315.360403478663	28.133143276522
0	643192	10326.963303347897	11.602899869234
0	645123	10357.652285002062	30.688981654165
0	649129	10419.006505091601	61.354220089539
0	650765	10443.115661252651	24.10915616105
0	652024	10460.81706296094	17.701401708289
0	654035	10491.542927293133	30.725864332193
0	656187	10527.651720628398	36.108793335265
0	657742	10554.42098970598	26.769269077582
0	661177	10612.632990679941	58.212000973961
0	662350	10630.301125507478	17.668134827537
0	663126	10642.117980701823	11.816855194345
0	664099	10656.733721181155	14.615740479332
0	666639	10694.049146246783	37.315425065628
0	667422	10705.701652681221	11.652506434438
0	670234	10749.055971879159	43.354319197938
0	673677	10802.098633546479	53.04266166732
0	675361	10826.552665292875	24.454031746396
0	677274	10854.113646564395	27.56098127152
0	678096	10867.012551504936	12.898904940541
0	678857	10879.934921668819	12.922370163883
0	680455	10904.43338144331	24.498459774491
0	682363	10933.20715507665	28.77377363334
0	682955	10944.560921221875	11.353766145225
0	683774	10954.945861664642	10.384940442767
0	686138	10994.29446960562	39.348607940978
0	688912	11038.835697560707	44.541227955087
0	690585	11065.776246372613	26.940548811906
0	693492	11114.6880775365	48.911831163887
0	694952	11135.274144816408	20.586067279908
0	696450	11161.574323886641	26.300179070233
0	698077	11188.284830441164	26.710506554523
0	699049	11204.588186885547	16.303356444383
0	700007	11221.585494419613	16.997307534066
0	701805	11252.54101357133	30.955519151717
0	707247	11337.648425864181	85.107412292851
0	708866	11363.475758119864	25.827332255683
0	710250	11384.894980349412	21.419222229548
0	711012	11397.544504830671	12.649524481259
0	712185	11414.514222734393	16.969717903722
0	713213	11430.359459797171	15.845237062778
0	715275	11461.63054360245	31.271083805279
0	716822	11487.738003697686	26.107460095236
0	717441	11499.752636279809	12.014632582123
0	718390	11514.108047189235	14.355410909426
0	719360	11528.555337866313	14.447290677078
0	722415	11576.515882467984	47.960544601671
0	723641	11594.738155345856	18.222272877872
0	725398	11624.030438282273	29.292282936417
0	726976	11646.51107004666	22.480631764387
0	729009	11678.688087164619	32.177017117959
0	730520	11704.153055200563	25.464968035944
0	731098	11714.582400227024	10.429345026461
0	732322	11734.132878134496	19.550477907472
0	736841	11807.350197650905	73.217319516409
0	739873	11853.341144737116	45.990947086211
0	743111	11905.605520898835	52.264376161719
0	745403	11944.106900809002	38.501379910167
0	747377	11974.866519476756	30.759618667754
0	748055	11986.478372880616	11.61185340386
0	750310	12021.745497310263	35.267124429647
0	751064	12033.517570365905	11.772073055642
0	752206	12053.598532254754	20.080961888849
0	756398	12124.361360047049	70.762827792295
0	757434	12139.346369032675	14.985008985626
0	759983	12179.555262094138	40.208893061463
0	761487	12202.956855772222	23.401593678084
0	762835	12224.192455513324	21.235599741102
0	763519	12237.49354749627	13.301091982946
0	764296	12247.608072571321	10.114525075051
0	765060	12259.97027554428	12.362202972959
0	766415	12281.502082644549	21.531807100269
0	767501	12302.67463639465	21.172553750101
0	768428	12320.121367083296	17.446730688646
0	769721	12338.709944297189	18.588577213893
0	775816	12439.089847753082	100.37990345589
0	777417	12463.123668361522	24.03382060844
0	779024	12487.301263905394	24.177595543872
0	781306	12524.366803415718	37.065539510324
0	782239	12540.764886096483	16.398082680765
0	782870	12551.869246735365	11.104360638882
0	783710	12565.133142468409	13.263895733044
0	784767	12579.32948102741	14.196338559001
0	785664	12596.27190285572	16.94242182831
0	786858	12614.602764923934	18.330862068214
0	789246	12653.109221631866	38.506456707932
0	790460	12674.755861975935	21.646640344069
0	791252	12685.90008445197	11.144222476035
0	792905	12716.680720934465	30.780636482495
0	794599	12740.34987587897	23.669154944505
0	795739	12756.995063148952	16.645187269982
0	801079	12841.010571928216	84.015508779264
0	802771	12866.230868780213	25.220296851997
0	807578	12938.435468637044	72.204599856831
0	809357	12967.785121279269	29.349652642225
0	811825	13009.804800843182	42.019679563913
0	812513	13022.552488226754	12.747687383572
0	813570	13041.341797313225	18.789309086471
0	816708	13095.366890851865	54.02509353864
0	817217	13107.089318069434	11.722427217569
0	820995	13165.904330750814	58.81501268138
0	822105	13183.407820654552	17.503489903738
0	824930	13233.754706622551	50.346885967999
0	826456	13259.817607454976	26.062900832425
0	827378	13270.739224377463	10.921616922487
0	828758	13294.106254825502	23.367030448039
0	829947	13314.036322215711	19.930067390209
0	830749	13325.781574870057	11.745252654346
0	832386	13353.277885567763	27.496310697706
0	834100	13379.679918737906	26.402033170143
0	838975	13462.644546118992	82.964627381086
0	839878	13476.526558314447	13.882012195455
0	842327	13519.634179489447	43.107621175
0	845059	13563.970572037745	44.336392548298
0	846280	13582.420243648074	18.449671610329
0	848023	13612.06069700517	29.640453357096
0	853967	13704.080781417766	92.020084412596
0	854885	13714.84883531148	10.768053893714
0	856507	13739.92915498246	25.08031967098
0	857174	13750.491892073397	10.562737090937
0	857898	13761.723927156762	11.232035083365
0	858740	13774.937827158757	13.213900001995
0	859765	13789.983202097694	15.045374938937
0	860358	13800.705848956768	10.722646859074
0	862771	13837.936087082874	37.230238126106
0	863838	13856.280145229511	18.344058146637
0	865048	13877.226407986826	20.946262757315
0	865708	13887.392675721778	10.166267734952
0	867024	13908.274067153031	20.881391431253
0	870056	13959.570554070703	51.296486917672
0	872005	13988.471560014025	28.901005943322
0	876299	14059.489247106557	71.017687092532
0	877104	14074.31243830624	14.823191199683
0	878700	14099.443072109575	25.130633803335
0	881818	14147.709818291419	48.266746181844
0	882745	14164.279929320095	16.570111028676
0	883640	14179.71372367594	15.433794355845
0	886405	14223.754017515744	44.040293839804
0	887462	14241.095092692599	17.341075176855
0	888229	14252.220234114239	11.12514142164
0	889540	14274.368751229064	22.148517114825
0	891556	14305.786318075589	31.417566846525
0	892954	14330.484212206895	24.697894131306
0	893658	14341.761232974593	11.277020767698
0	897587	14411.113568675677	69.352335701084
0	898387	14426.476192211696	15.362623536019
0	899692	14446.875185813954	20.398993602258
0	900776	14462.676371333062	15.801185519108
0	902864	14497.07547368603	34.399102352968
0	904884	14527.377008769828	30.301535083798
0	906502	14549.62813710353	22.251128333702
0	907968	14570.608375198415	20.980238094885
0	911207	14623.961112537753	53.352737339338
0	912029	14635.52186056679	11.560748029037
0	918859	14743.394309326317	107.87244875953
0	919631	14755.933245810748	12.538936484431
0	920775	14776.737938370277	20.804692559529
0	925633	14856.624342607621	79.886404237344
0	926376	14867.447980521534	10.823637913913
0	927050	14878.416043848251	10.968063326717
0	927593	14888.79904849887	10.383004650619
0	928357	14899.507238093863	10.708189594993
0	929404	14917.537073597921	18.029835504058
0	930330	14932.13583002057	14.598756422649
0	931555	14950.802577162307	18.666747141737
0	933139	14976.677676582732	25.875099420425
0	938281	15064.366265855865	87.688589273133
0	939151	15078.657443413544	14.291177557679
0	941292	15111.501059935078	32.843616521534
0	947163	15206.994608979582	95.493549044504
0	949147	15243.471448485247	36.476839505665
0	949963	15256.638687297161	13.167238811914
0	951161	15274.822368178104	18.183680880943
0	953247	15310.909070740639	36.086702562535
0	954811	15335.489967872521	24.580897131882
0	955610	15350.001494429383	14.511526556862
0	956646	15366.288612986859	16.287118557476
0	957920	15384.722956064578	18.434343077719
0	959892	15413.706019417791	28.983063353213
0	961147	15433.266546913269	19.560527495478
0	963305	15467.147009178931	33.880462265662
0	965880	15507.082275783808	39.935266604877
0	966728	15522.786215214234	15.703939430426
0	968104	15542.244566516654	19.45835130242
0	968945	15555.314205339766	13.069638823112
0	969904	15570.264700230932	14.950494891166
0	971465	15595.855606180292	25.59090594936
0	973600	15630.493951302005	34.638345121713
0	975465	15659.363823469102	28.869872167097
0	976377	15673.909768926423	14.545945457321
0	977228	15689.868549632568	15.958780706145
0	978405	15709.803278152905	19.934728520337
0	979878	15730.097568314306	20.294290161401
0	982771	15780.243847629499	50.146279315193
0	983754	15795.899161814129	15.65531418463
0	984510	15808.999207259443	13.100045445314
0	985052	15819.735952789358	10.736745529915
0	985861	15832.59618574704	12.860232957682
0	986907	15848.54315072732	15.94696498028
0	988209	15866.094847354943	17.551696627623
0	989625	15890.28377515916	24.188927804217
0	991434	15921.249760667552	30.965985508392
0	995772	15996.565097306878	75.315336639326
0	1002776	16107.610857836421	111.04576052954
0	1004098	16124.657269888079	17.046412051658
0	1004860	16135.508560588614	10.851290700535
0	1005481	16145.519916182988	10.011355594374
0	1010099	16219.043297509423	73.523381326435
0	1011899	16245.959245500064	26.915947990641
0	1014400	16286.498555979747	40.539310479683
0	1016178	16317.407892938604	30.909336958857
0	1017580	16338.892386234749	21.484493296145
0	1021912	16408.083400332631	69.191014097882
0	1022725	16421.668559446001	13.58515911337
0	1028774	16513.440488768484	91.771929322483
0	1030552	16540.731474417844	27.29098564936
0	1032860	16582.942304574835	42.210830156991
0	1034320	16608.868187047977	25.925882473142
0	1036140	16638.747533721096	29.879346673119
0	1039064	16683.019415547986	44.27188182689
0	1041254	16717.715786747993	34.696371200007
0	1043546	16752.800588436059	35.084801688066
0	1044546	16768.621216418083	15.820627982024
0	1047296	16811.509588844021	42.888372425938
0	1047921	16821.788827768044	10.279238924023
0	1049164	16840.154348694299	18.365520926255
0	1050533	16859.9151436774	19.760794983101
0	1052393	16892.397358720895	32.482215043495
0	1054552	16928.657594064085	36.26023534319
0	1055607	16946.509791136264	17.852197072179
0	1056618	16961.231331973449	14.721540837185
0	1059158	17002.47068454031	41.239352566861
0	1060792	17029.669098234951	27.198413694641
0	1061882	17045.293335711501	15.62423747655
0	1063666	17073.445172016688	28.151836305187
0	1064546	17087.390280575791	13.945108559103
0	1065522	17103.972983785494	16.582703209703
0	1068719	17157.66126621559	53.688282430096
0	1071431	17199.588989164411	41.927722948821
0	1072526	17220.415345567761	20.82635640335
0	1073704	17238.038321072546	17.622975504785
0	1075088	17261.313100888458	23.274779815912
0	1076436	17282.185103145865	20.872002257407
0	1077672	17298.944418674303	16.759315528438
0	1079837	17333.273611483294	34.329192808991
0	1080779	17347.059196742129	13.785585258835
0	1081734	17361.512603973532	14.453407231403
0	1083845	17396.354865451862	34.84226147833
0	1084482	17407.112336795851	10.757471343989
0	1085481	17424.365464548014	17.253127752163
0	1086641	17441.32307620498	16.957611656966
0	1087656	17460.444147729421	19.121071524441
0	1088739	17481.070160974802	20.626013245381
0	1089308	17491.313046060398	10.242885085596
0	1090238	17506.602017245625	15.288971185227
0	1090851	17518.120985389293	11.518968143668
0	1092996	17554.659618006105	36.538632616812
0	1095095	17589.385627628708	34.726009622603
0	1098270	17643.312726866142	53.927099237434
0	1099069	17656.848162085695	13.535435219553
0	1101347	17693.27339779366	36.425235707965
0	1102309	17707.494339640396	14.220941846736
0	1103369	17724.461949619746	16.96760997935
0	1106218	17771.663560045541	47.201610425795
0	1107153	17784.67765345861	13.014093413069
0	1109428	17822.670077745354	37.992424286744
0	1115214	17915.306060992085	92.635983246731
0	1116711	17938.805861366311	23.499800374226
0	1118756	17970.417285369372	31.611424003061
0	1119571	17983.214852200966	12.797566831594
0	1120719	18000.823077139888	17.608224938922
0	1122303	18025.930195112775	25.107117972887
0	1125339	18069.417781798427	43.487586685652
0	1126101	18080.67092644829	11.253144649863
0	1126929	18091.547471529124	10.876545080834
0	1128119	18111.614872496841	20.067400967717
0	1130093	18142.002564842566	30.387692345725
0	1132135	18176.319326761006	34.31676191844
0	1134052	18206.105726120675	29.786399359669
0	1135463	18231.927237370439	25.821511249764
0	1136405	18248.59922280034	16.671985429901
0	1139373	18296.69412898613	48.09490618579
0	1140349	18311.205991627713	14.511862641583
0	1141448	18329.038247910606	17.832256282893
0	1143162	18357.441433014218	28.403185103612
0	1144454	18379.007754116592	21.566321102374
0	1147213	18423.213171830193	44.205417713601
0	1147889	18434.89699010758	11.683818277387
0	1149916	18467.911793904472	33.014803796892
0	1150716	18484.038788247058	16.126994342586
0	1153542	18532.124370225019	48.085581977961
0	1158116	18609.929950824623	77.805580599604
0	1158716	18619.989372677248	10.059421852625
0	1159483	18632.440063202847	12.450690525599
0	1160657	18644.603749321167	12.16368611832
0	1162334	18676.407031368545	31.803282047378
0	1163635	18697.506277439172	21.099246070627
0	1164803	18717.545585525825	20.039308086653
0	1165480	18728.580639290839	11.035053765014
0	1171881	18833.939995726365	105.35935643553
0	1172769	18846.951760209457	13.011764483092
0	1175065	18881.831758232783	34.879998023326
0	1176957	18913.698380441781	31.866622208998
0	1177791	18927.773146909245	14.074766467464
0	1178864	18949.275275109039	21.502128199794
0	1180107	18969.44797877149	20.172703662451
0	1184824	19048.003865191218	78.555886419728
0	1186399	19076.369610365561	28.365745174343
0	1187622	19097.041398085846	20.671787720285
0	1189079	19117.762996498576	20.72159841273
0	1190867	19141.876957293082	24.113960794506
0	1195125	19201.843520269832	59.96656297675
0	1200324	19280.378677280424	78.535157010592
0	1201264	19295.511477082917	15.132799802493
0	1202056	19307.121312281555	11.609835198638
0	1202986	19319.561758212902	12.440445931347
0	1204073	19335.791003776445	16.229245563543
0	1205317	19354.577444078477	18.786440302032
0	1206263	19369.045580742826	14.468136664349
0	1208616	19407.201460274908	38.155879532082
0	1212279	19469.165627303356	61.964167028448
0	1214889	19514.522578719262	45.356951415906
0	1216940	19547.572599532812	33.05002081355
0	1218306	19568.663307245963	21.090707713151
0	1220424	19603.68180882253	35.018501576567
0	1224997	19678.234786959476	74.552978136946
0	1227061	19710.193125266784	31.958338307308
0	1232704	19797.031191461954	86.83806619517
0	1233702	19812.78759694406	15.756405482106
0	1234410	19824.134416909255	11.346819965195
0	1236602	19857.017002058237	32.882585148982
0	1238336	19881.291181586398	24.274179528161
0	1239484	19897.196684824354	15.905503237956
0	1242551	19944.623484880501	47.426800056147
0	1244210	19971.808280215753	27.184795335252
0	1245057	19985.58279513018	13.774514914427
0	1247283	20021.950528247492	36.367733117312
0	1248034	20032.382644570504	10.432116323012
0	1249539	20057.364946704059	24.982302133555
0	1251482	20087.536614144038	30.171667439979
0	1252265	20098.32131537652	10.784701232482
0	1253480	20118.373439036488	20.052123659968
0	1254818	20142.236801979327	23.863362942839
0	1255552	20153.276087881727	11.0392859024
0	1256647	20169.93895274216	16.662864860433
0	1259213	20213.703964563017	43.765011820857
0	1260062	20229.844537356355	16.140572793338
0	1260994	20243.414815000415	13.57027764406
0	1262276	20262.121459746454	18.706644746039
0	1263357	20281.257164716562	19.135704970108
0	1265300	20313.361776833162	32.1046121166
0	1269450	20379.058653734309	65.696876901147
0	1270512	20396.687776904244	17.629123169935
0	1272403	20425.501975273917	28.814198369673
0	1273140	20438.198591174775	12.696615900858
0	1275686	20477.584602567197	39.386011392422
0	1277675	20511.211906684404	33.627304117207
0	1278840	20528.635916220931	17.424009536527
0	1283501	20603.726862441878	75.090946220947
0	1284729	20621.751928734054	18.025066292176
0	1285370	20632.778905262084	11.02697652803
0	1289149	20695.110429270748	62.331524008664
0	1291255	20729.794925067693	34.684495796945
0	1292403	20748.978017202111	19.183092134418
0	1293137	20762.643673517968	13.665656315857
0	1295437	20800.975840470491	38.332166952523
0	1297101	20828.639917493876	27.664077023385
0	1298109	20846.81125218711	18.171334693234
0	1299558	20868.503008721676	21.691756534566
0	1301440	20895.526200834919	27.023192113243
0	1302475	20909.949020286631	14.422819451712
0	1304537	20941.482547431549	31.533527144918
0	1305522	20956.873065062023	15.390517630474
0	1306180	20969.007682513447	12.134617451424
0	1306778	20980.04931671264	11.041634199193
0	1310110	21031.514356203113	51.465039490473
0	1311226	21051.327989413746	19.813633210633
0	1312435	21071.377265518707	20.049276104961
0	1313696	21091.633745640623	20.256480121916
0	1317646	21154.678138935772	63.044393295149
0	1319866	21191.377003997081	36.698865061309
0	1322475	21233.889083330661	42.51207933358
0	1323050	21244.825248537096	10.936165206435
0	1323869	21257.603391417817	12.778142880721
0	1325197	21277.757331713543	20.153940295726
0	1329239	21343.698709999907	65.941378286364
0	1330290	21358.928028378528	15.229318378621
0	1330897	21370.326865123438	11.39883674491
0	1332064	21387.438255139207	17.111390015769
0	1333432	21410.163645420585	22.725390281378
0	1335235	21434.701663280271	24.538017859686
0	1336144	21450.26510409707	15.563440816799
0	1336686	21460.426293379868	10.161189282798
0	1337339	21471.290479731878	10.86418635201
0	1338435	21489.578561257586	18.288081525708
0	1339093	21500.926674612129	11.348113354543
0	1340691	21525.938409286966	25.011734674837
0	1343054	21564.496021165071	38.557611878105
0	1351120	21686.819196703528	122.32317553846
0	1353150	21717.692021277108	30.87282457358
0	1356279	21766.984959092942	49.292937815834
0	1357204	21784.404630415844	17.419671322902
0	1357981	21796.341001489612	11.936371073768
0	1362339	21867.755824397358	71.414822907746
0	1363733	21891.367978424099	23.612154026741
0	1364877	21906.071394564816	14.703416140717
0	1365666	21917.417430430083	11.346035865267
0	1366566	21932.052515519435	14.635085089352
0	1367308	21943.133435326927	11.080919807492
0	1369037	21972.458539676786	29.325104349859
0	1370301	21993.793343874919	21.334804198133
0	1373685	22050.295548071415	56.502204196496
0	1374512	22063.542209474009	13.246661402594
0	1375612	22081.180084048752	17.637874574743
0	1376614	22094.952024522221	13.771940473469
0	1377623	22112.06100049056	17.108975968339
0	1379030	22133.558341277126	21.497340786566
0	1382164	22185.250021832972	51.691680555846
0	1384494	22224.234877963891	38.984856130919
0	1385184	22236.945929823759	12.711051859868
0	1385888	22250.696362070795	13.750432247036
0	1387575	22274.606416234675	23.91005416388
0	1389102	22299.649558825355	25.04314259068
0	1390793	22325.430611065343	25.781052239988
0	1391866	22340.097921177494	14.667310112151
0	1394078	22374.108889285929	34.010968108435
0	1397596	22427.827979334611	53.719090048682
0	1399186	22452.545997105804	24.718017771193
0	1401614	22492.106622684121	39.560625578317
0	1403415	22521.843419289466	29.736796605345
0	1404645	22542.413881906921	20.570462617455
0	1405615	22557.030369740932	14.616487834011
0	1408651	22605.660013707752	48.62964396682
0	1409336	22616.413984285126	10.753970577374
0	1410496	22636.306916116229	19.892931831103
0	1412939	22679.597419743592	43.290503627363
0	1413903	22694.611496271452	15.01407652786
0	1415693	22722.242263831568	27.630767560116
0	1419173	22781.406491061001	59.164227229433
0	1420452	22804.405003452113	22.998512391112
0	1421109	22815.49423344275	11.089229990637
0	1422902	22843.539586975561	28.045353532811
0	1425075	22876.91501592724	33.375428951679
0	1426309	22895.372429149769	18.457413222529
0	1428495	22928.481673490562	33.109244340793
0	1429279	22940.180034864561	11.698361373999
0	1429911	22951.142077551895	10.962042687334
0	1433381	23010.029997524001	58.887919972106
0	1434031	23020.317002749335	10.287005225334
0	1434987	23033.577990848063	13.260988098728
0	1435539	23044.245757901311	10.667767053248
0	1436190	23055.774530022137	11.528772120826
0	1436875	23067.423948072115	11.649418049978
0	1439103	23101.487669303116	34.063721231001
0	1440205	23119.315376935862	17.827707632746
0	1441158	23133.233587944634	13.918211008772
0	1446829	23224.944305279031	91.710717334397
0	1447749	23240.967176759465	16.022871480434
0	1450390	23283.533373388458	42.566196628993
0	1454785	23354.583543529452	71.050170140994
0	1456332	23378.923609240677	24.340065711225
0	1459045	23420.658547656724	41.734938416047
0	1459668	23430.748864699951	10.090317043227
0	1461061	23453.936192813172	23.187328113221
0	1462984	23485.487870472712	31.55167765954
0	1463924	23497.512288182289	12.024417709577
0	1465031	23515.363252225523	17.850964043234
0	1465834	23531.518850209677	16.155597984154
0	1467094	23552.019143093194	20.500292883517
0	1468340	23572.064345514328	20.045202421134
0	1469272	23585.652526448408	13.58818093408
0	1470895	23611.296534230668	25.64400778226
0	1473564	23650.885672991553	39.589138760885
0	1474846	23672.557547273815	21.671874282262
0	1475967	23692.523365623615	19.9658183498
0	1479448	23746.284915567266	53.761549943651
0	1481255	23775.295609696589	29.010694129323
0	1483132	23805.024988005164	29.729378308575
0	1484048	23819.83605700901	14.811069003846
0	1485187	23838.969005397818	19.132948388808
0	1486479	23858.750883542505	19.781878144687
0	1487326	23871.731014417212	12.980130874707
0	1488117	23884.744557352995	13.013542935783
0	1489947	23914.088586457995	29.344029105
0	1492141	23950.770313829102	36.681727371107
0	1494257	23982.86281752151	32.092503692408
0	1495240	23999.264392267483	16.401574745973
0	1496784	24020.195195336971	20.930803069488
0	1499440	24065.324607144861	45.12941180789
0	1501078	24093.285808582161	27.9612014373
0	1502017	24106.729013661868	13.443205079707
0	1507079	24192.943548632043	86.214534970175
0	1508333	24213.915346981045	20.971798349002
0	1508992	24225.407277544263	11.491930563218
0	1509899	24240.264406924541	14.857129380278
0	1511295	24266.474789497747	26.210382573206
0	1513048	24292.270462851853	25.795673354106
0	1515567	24331.840774450163	39.57031159831
0	1516971	24353.319524500071	21.478750049908
0	1518697	24382.758644046879	29.439119546808
0	1519957	24404.192572071401	21.433928024522
0	1520667	24414.512250464156	10.319678392755
0	1521554	24428.638551056627	14.126300592471
0	1522221	24438.683826632397	10.04527557577
0	1525573	24497.005783296007	58.32195666361
0	1527107	24524.319872304959	27.314089008952
0	1529245	24558.954994115979	34.63512181102
0	1530315	24577.746479849002	18.791485733023
0	1530992	24589.782613902597	12.036134053595
0	1532457	24609.358748547819	19.576134645222
0	1533357	24625.719657518912	16.360908971093
0	1536944	24684.446060491965	58.726402973053
0	1539771	24730.570427357269	46.124366865304
0	1541606	24760.826238668224	30.255811310955
0	1543899	24795.09770776226	34.271469094036
0	1546113	24826.493314069029	31.395606306769
0	1548077	24858.372318528049	31.87900445902
0	1549353	24876.370210751894	17.997892223845
0	1549992	24888.651539440774	12.28132868888
0	1551324	24909.33949381947	20.687954378696
0	1552858	24933.90075547939	24.56126165992
0	1554654	24962.922220504861	29.021465025471
0	1555390	24972.990719269307	10.068498764446
0	1556324	24989.023460458407	16.0327411891
0	1557563	25012.737311293081	23.713850834674
0	1558731	25030.140403219344	17.403091926263
0	1559685	25044.07209307355	13.931689854206
0	1561361	25073.24003608917	29.16794301562
0	1564273	25118.758845689799	45.518809600629
0	1565033	25130.631443652965	11.872597963166
0	1568267	25179.315077280087	48.683633627122
0	1569189	25191.320323973914	12.005246693827
0	1569929	25202.604056979197	11.283733005283
0	1570898	25218.653530854646	16.049473875449
0	1571689	25232.573160208079	13.919629353433
0	1576989	25316.692901423831	84.119741215752
0	1578524	25336.543615020744	19.850713596913
0	1579573	25352.991405387222	16.447790366478
0	1582036	25395.51000614628	42.518600759058
0	1583791	25422.003207877066	26.493201730786
0	1585091	25441.584228318363	19.581020441297
0	1586584	25466.111324609083	24.52709629072
0	1588073	25489.296115607094	23.184790998011
0	1588917	25503.579339479222	14.283223872128
0	1593031	25571.069265031045	67.489925551823
0	1594830	25600.746732797627	29.677467766582
0	1597169	25636.517724223045	35.770991425418
0	1602068	25720.711561368407	84.193837145362
0	1602731	25731.457156751059	10.745595382652
0	1604558	25762.099533332831	30.642376581772
0	1606218	25789.055140572755	26.955607239924
0	1608323	25820.134952794262	31.079812221507
0	1610280	25852.899664490686	32.764711696424
0	1611045	25864.410311422442	11.510646931756
0	1611964	25882.130013219348	17.719701796906
0	1612977	25899.469663451361	17.339650232013
0	1615328	25937.132216532829	37.662553081468
0	1616728	25961.786116560786	24.653900027957
0	1621750	26043.060563919076	81.27444735829
0	1623711	26070.606124868429	27.545560949353
0	1625368	26093.888597369757	23.282472501328
0	1627657	26131.038373463015	37.149776093258
0	1628450	26141.820683004724	10.782309541709
0	1630446	26172.935007772001	31.114324767277
0	1632449	26205.148018842544	32.213011070543
0	1634622	26241.662824273884	36.51480543134
0	1637252	26280.427404886685	38.764580612801
0	1637869	26290.775480902836	10.348076016151
0	1639376	26314.534615093333	23.759134190497
0	1640136	26325.545328292975	11.010713199642
0	1642277	26360.097146396259	34.551818103284
0	1643370	26381.00540904579	20.908262649531
0	1644304	26394.434247678322	13.428838632532
0	1646443	26428.179950580206	33.745702901884
0	1647923	26449.671237199458	21.491286619252
0	1648971	26464.547141361779	14.875904162321
0	1650274	26485.323849913455	20.776708551676
0	1651015	26499.379813830637	14.055963917182
0	1658464	26623.574745321907	124.19493149127
0	1659123	26634.993592464084	11.418847142177
0	1663285	26695.526729731548	60.533137267464
0	1664320	26713.327867237064	17.801137505516
0	1665194	26726.920074603434	13.59220736637
0	1666772	26752.547246277618	25.627171674184
0	1667567	26763.639666882092	11.092420604474
0	1668422	26779.223745050417	15.584078168325
0	1670441	26806.724402318115	27.500657267698
0	1672701	26841.016331066678	34.291928748563
0	1673391	26852.406578018173	11.390246951495
0	1677124	26913.401274471605	60.994696453432
0	1677793	26924.522764080505	11.1214896089
0	1678557	26938.496956656254	13.974192575749
0	1679872	26956.632916392784	18.13595973653
0	1683586	27013.039052493356	56.406136100572
0	1685643	27048.998114404388	35.959061911032
0	1689268	27108.902048312343	59.903933907955
0	1689906	27119.521248098658	10.619199786315
0	1693445	27173.869590419012	54.348342320354
0	1694377	27188.436760265254	14.567169846242
0	1695455	27206.501429957717	18.064669692463
0	1696802	27225.939356618209	19.437926660492
0	1697864	27240.932716740256	14.993360122047
0	1698939	27258.683836456885	17.751119716629
0	1699703	27272.647376001706	13.963539544821
0	1703537	27333.400840434967	60.753464433261
0	1705127	27355.448563216515	22.047722781548
0	1708466	27407.23465683021	51.786093613695
0	1709922	27429.905416851336	22.670760021126
0	1711954	27467.283709690469	37.378292839133
0	1713808	27494.190651072302	26.906941381833
0	1715338	27518.26215706565	24.071505993348
0	1717994	27562.151202267614	43.889045201964
0	1720517	27602.704603493749	40.553401226135
0	1721434	27618.167396823897	15.462793330148
0	1724452	27672.435419330377	54.26802250648
0	1726497	27709.508888979827	37.07346964945
0	1728765	27747.910396063629	38.401507083802
0	1730994	27782.269806100525	34.359410036896
0	1732333	27804.52600971899	22.256203618465
0	1734278	27835.91484509513	31.38883537614
0	1734925	27852.402874823609	16.488029728479
0	1738360	27906.367013188372	53.964138364763
0	1739529	27922.499056897741	16.132043709369
0	1740403	27938.276185981414	15.777129083673
0	1741260	27951.329206887976	13.053020906562
0	1742299	27970.97116752254	19.641960634564
0	1743360	27989.377861248967	18.406693726427
0	1745417	28024.476815813432	35.098954564465
0	1746601	28042.789606356463	18.312790543031
0	1747304	28053.389648578891	10.600042222428
0	1750413	28104.042068640929	50.652420062038
0	1751715	28126.280767457104	22.238698816175
0	1753213	28146.194307417742	19.913539960638
0	1755803	28186.918909781079	40.724602363337
1	463	4.630009971947	4.630009971947
1	530	5.902688745355	5.902688745355
1	589	6.513067359221	6.513067359221
1	614	6.8663562767	6.8663562767
1	1190	15.865321892363	15.865321892363
1	1315	17.825461439467	17.825461439467
1	1909	26.272622388278	26.272622388278
1	2201	31.811380736989	25.908691991634
1	2426	36.262481018249	36.262481018249
1	2919	42.774844112969	36.261776753748
1	3635	54.016456998143	22.205076261154
1	3799	56.589190461579	51.959180489632
1	3915	58.633266424623	51.766910147923
1	4241	65.341915294638	47.516453855171
1	4747	71.901601617405	29.126757504436
1	4897	74.121059856153	37.858578837904
1	5581	84.046074021852	25.412807597229
1	5838	86.201292417826	20.859377123188
1	6062	93.336165861365	21.43456424396
1	6599	104.654509167531	30.533449311378
1	6709	106.818473698678	52.802016700535
1	6950	110.879806169648	26.833732147796
1	7382	117.600633015743	24.264467154378
1	7683	121.556765742153	64.967575280574
1	7913	125.446760370972	39.245467953146
1	7930	125.504643736127	20.850134568596
1	8169	128.950282758892	22.131809060214
1	8304	130.002513118411	114.13719122605
1	9330	147.19059223147	36.310786061822
1	9380	148.494799623152	122.22217723487
1	9405	148.669180362574	31.068547346831
1	9763	153.943270837251	23.94075771884
1	10044	158.677957783119	33.231197412147
1	10426	164.644694487241	43.087928745088
1	10835	171.568771350394	46.064127614267
1	10886	172.08082084747	24.890228616
1	11244	179.163471033038	30.668671409886
1	11328	180.595462331852	51.64517957296
1	11944	190.951489802102	32.273532018983
1	12060	193.056152669746	20.975331822276
1	12267	196.64013354113	31.995439053889
1	12301	196.764911193737	42.821640356486
1	12318	196.938295714658	48.269115352084
1	12835	205.380258119681	24.784795787829
1	13218	210.131292854901	38.562521504507
1	13482	215.197120639105	22.140967969359
1	13993	222.568896433032	25.803985239295
1	14085	223.133186361934	32.181696559832
1	14118	223.76224960596	27.12211606483
1	14585	230.707347379438	20.576054524537
1	15159	240.344741379623	34.964483259942
1	15459	244.337289287547	65.173818254509
1	15551	245.809679629311	22.047430023351
1	15974	251.54169562451	28.408509262576
1	16074	253.049868760137	56.111573045479
1	16267	256.231279204346	33.662382771314
1	16477	258.320364328487	43.123243689382
1	17026	266.542024033213	20.732344403902
1	17373	272.844209724731	42.136862345293
1	17606	276.762392815219	32.425103527672
1	17807	279.209561673363	26.159692913226
1	17882	280.143433824077	23.912154619731
1	18415	289.284457617951	37.742761993441
1	18432	289.31230997458	30.991945646093
1	18649	292.754336585451	52.409595205828
1	19367	301.680280316635	24.917887501416
1	19855	311.658068753944	45.116044720731
1	19948	313.63165678742	40.787447062689
1	19965	313.746601282591	33.603167458514
1	20048	314.996907654885	25.712450036934
1	20073	315.088494804345	22.334158218894
1	20691	322.991301222956	43.781739549593
1	21208	332.102236384563	30.421956067928
1	21367	334.741094156008	20.994492873417
1	21837	340.963870865463	27.332214078043
1	22303	349.927405809689	38.269337055745
1	22743	358.24476290237	43.156268098025
1	23045	361.829033555674	72.516723581094
1	23229	365.595374380279	30.854280224271
1	23813	372.874752347668	49.883451124712
1	23888	374.912569193065	33.948698327602
1	24129	379.812852514419	29.88544670473
1	24773	390.729897373639	58.627660989076
1	25084	394.261913413519	36.017150511149
1	25109	394.452225653207	21.577473305539
1	25375	398.685849319105	83.68894166422
1	25542	402.563566983385	40.734533427711
1	25593	404.224547470491	29.311978277426
1	25960	409.355403869181	29.542551354762
1	26176	412.464432906639	46.86905852636
1	26319	414.533708889851	20.271795476332
1	26361	414.940481468562	24.210584094923
1	26568	419.659846548512	20.973997229407
1	26784	423.755336221261	29.303110568054
1	27251	430.414448827143	21.059044957962
1	28042	442.652665879631	30.188232972992
1	28101	443.948321718856	20.192985497595
1	28269	445.699504829109	26.039658280597
1	28533	450.155471525416	45.930924054925
1	28641	452.064272340058	37.530563450207
1	28856	455.706015600599	53.142448617214
1	28997	457.685993509212	27.271544682069
1	29228	463.23315488689	20.580489007259
1	29371	465.804401375535	20.104896546426
1	29938	473.999348508458	23.843876983042
1	30071	475.40558650544	60.465105036878
1	30405	479.029092976089	26.964820636031
1	30723	484.284578348015	21.051423461125
1	30881	487.589853616159	31.88383801556
1	31322	494.720357346804	50.772035627948
1	31940	503.915549820886	24.886456844797
1	32175	507.095329165489	33.095980657031
1	32209	507.215827624092	31.810241118652
1	32670	514.30487538677	56.618881877558
1	32695	514.713944567189	30.429366219174
1	33061	522.935997780171	35.346144164012
1	33228	525.372119492131	21.456569671245
1	33454	529.385093202534	22.289764037045
1	34113	539.467432502481	24.753487935292
1	34130	539.543166598072	44.822809251268
1	34586	546.43471084264	23.498713062469
1	35070	555.984298540107	26.599205337573
1	35120	557.172092684789	31.799973192658
1	35497	561.485145652817	47.180270266047
1	35879	567.469409863975	21.034699021335
1	35929	567.934942662702	28.39177606463
1	36373	573.468993003585	107.66459162805
1	36514	576.29556946367	20.311270923563
1	36696	580.847647735487	41.380215233006
1	37146	587.362973138488	25.877827485671
1	37321	590.40824402214	22.473301359438
1	37511	593.464308090734	36.292215405945
1	37713	595.312947181548	27.843537317573
1	38106	601.805969221453	94.590141597361
1	38702	610.493389644414	34.197820180744
1	38993	614.763213666687	33.9155659312
1	39633	626.022546271699	38.659573133211
1	39717	627.021910998378	33.557602907644
1	39876	628.465764566645	26.659795345192
1	40541	637.20276100677	46.79451698463
1	40715	639.863382516798	44.55043533525
1	41557	658.487342387182	85.018349383597
1	41666	660.541318446271	45.778104779584
1	42203	667.380927666763	40.359016668385
1	42544	671.859610105211	34.656849098441
1	42726	674.688419064468	46.222654497823
1	42973	680.849245951271	22.361903564089
1	43041	681.53643195957	41.673049442772
1	43398	687.889976415766	20.509048749003
1	43415	687.934987411822	61.912441140123
1	43532	689.68485111543	79.191461471016
1	44065	698.121955353373	23.433536288905
1	44662	704.331333168018	32.471723062807
1	44795	706.55570304945	25.01927108988
1	44820	706.888105781127	26.038859829856
1	44886	708.078639541833	47.537321095562
1	44968	709.623503477441	21.688516065619
1	45629	720.287547654227	32.397571238461
1	46266	730.722998339403	26.391665171385
1	46539	735.242754665185	45.557903549755
1	46573	736.311799377073	26.688295899632
1	46623	736.953992349059	30.398289299609
1	46656	737.177784587107	30.28967880598
1	46706	737.533840906182	29.455201364349
1	47859	756.45323048044	36.165682826213
1	48110	759.860784089248	24.618029424063
1	48127	759.906601525611	61.784646172238
1	48161	760.483997726789	23.306213139682
1	48178	760.836424384674	30.113426045271
1	48577	766.521882749588	30.210083372515
1	49533	779.014810392019	22.561579911579
1	49683	781.004576487592	20.168152102918
1	49766	782.08698160221	45.132989253151
1	50015	786.754333753364	20.232451003776
1	50191	789.031002195997	29.170218106749
1	50283	789.856169044315	29.949567518704
1	50399	791.376332475176	53.842491568994
1	50890	800.305561537793	39.821563811004
1	51426	808.034441172692	21.280107419328
1	52038	817.923558219693	26.547225744517
1	52238	821.562539864226	42.547729472207
1	52263	822.559068432189	33.528066236192
1	52414	823.398905429905	33.54273638559
1	52464	824.09098816251	42.0040065603
1	52624	825.157482138155	44.152905650563
1	53015	832.580283447154	32.274721909361
1	53829	846.154165698589	22.755260268684
1	53937	848.281491397107	26.718951532881
1	54188	851.405810260211	33.482252040518
1	54791	860.481053326045	36.390065163535
1	55388	868.896210797253	60.861769624561
1	55446	869.606156555649	44.448674417494
1	55555	872.337922026659	49.77885359447
1	55605	872.778007758139	21.372197497928
1	56294	882.319915692602	36.165749994013
1	56669	889.537063766521	56.956780319367
1	56736	890.257564508199	41.976073111092
1	56828	890.573181150932	20.967024595283
1	57658	904.730252965116	22.410337272514
1	57873	908.069813218179	47.588759892134
1	58258	915.769517831548	43.431595804889
1	58325	916.175203957712	25.60202280678
1	58475	917.781459382089	28.244395615568
1	59061	926.584832066587	57.688621269334
1	59293	929.250463736033	24.520210770917
1	59351	930.368644327619	40.11107981942
1	59549	934.485405429865	26.415592211686
1	59800	938.486489848886	22.716972017338
1	60094	942.211181736993	69.433173978854
1	60700	950.408938531168	20.040294203549
1	61083	957.022671765393	30.437839698806
1	61459	964.281040117126	46.499580735037
1	61658	967.980047896586	29.4935580477
1	61725	968.220886888756	26.009705151763
1	62044	972.057873080198	42.807409344165
1	62411	978.219642275869	43.734236846004
1	62478	978.789176396043	62.613972438331
1	62625	981.241507831872	24.218836066479
1	63042	988.275025583311	20.054138694555
1	63992	1003.493558814113	22.252050982241
1	64009	1003.581296320387	25.361654044518
1	64427	1009.987966330994	21.712940747683
1	64559	1011.044448110649	38.986575030451
1	64751	1014.090948533025	35.301772136982
1	65136	1019.845746687551	69.436808156383
1	65567	1027.388691675841	63.107651558715
1	66075	1036.051642480653	32.470346160266
1	66274	1038.807009271583	35.31345045747
1	66332	1039.488434611598	28.443986500949
1	66530	1043.217807757996	29.126859224971
1	66705	1045.390232558756	35.402266227762
1	67016	1050.550963474755	30.705216787204
1	67392	1055.7196048741	87.739556977514
1	67532	1059.268952789716	31.880261113875
1	67565	1060.296732360801	24.245089880148
1	67582	1060.786491014817	21.298056403219
1	68423	1075.627722651478	32.409914893482
1	68440	1076.652639783082	26.101676308327
1	68600	1079.107331260039	40.300321988456
1	68701	1080.623178291335	21.354225501619
1	68876	1083.035204931583	22.248713916766
1	69177	1086.573054174271	41.182821615515
1	69328	1087.956192012058	27.659459651257
1	70018	1099.504658330114	43.785053456014
1	70531	1107.3783803742	30.725740591118
1	70607	1109.205477684369	26.170272752786
1	71131	1116.29540464381	37.188073383771
1	71206	1117.443433173511	41.815710522033
1	71364	1121.628248516379	22.123590186265
1	71875	1129.897576493785	20.692098809416
1	71900	1130.972009352125	44.398955177854
1	72285	1139.084935293412	31.706554919212
1	72494	1142.951080910159	26.655676266349
1	72792	1146.742626349664	29.299193176153
1	73009	1150.549418766839	20.651842273054
1	73043	1150.974601209426	63.018409197368
1	73694	1160.673373923749	21.588438630337
1	74049	1165.516261895231	34.544252543106
1	74464	1171.670785689817	21.121366922978
1	74789	1176.138158574172	29.395532224508
1	75089	1181.038445345999	100.41526705466
1	75536	1189.740136483046	29.066762559297
1	75561	1190.535829812883	47.584748902724
1	75677	1193.222187020069	71.59393850369
1	75803	1194.784161857486	43.80956064806
1	76270	1200.57387533491	28.903089645093
1	76428	1202.936624363858	37.420362468627
1	76938	1211.548140065251	21.012310252368
1	77096	1214.708259570488	33.669814224489
1	77204	1216.791479999046	22.00731814156
1	77305	1218.487759327311	25.265572307242
1	77605	1222.71653556564	22.14266023073
1	77965	1227.48467210661	24.548047742752
1	78530	1236.434861243048	24.886721177797
1	78780	1240.204311613509	50.464175130463
1	78970	1243.591763679175	25.104004351864
1	79221	1247.684489138007	24.967953572367
1	79313	1248.818179427768	21.333507321158
1	79355	1249.229383053826	73.091224479654
1	80554	1265.854538952803	49.063058953757
1	81210	1275.356050486659	27.671561348652
1	81327	1277.302124509655	62.593864939167
1	81344	1278.083293053953	37.878981440444
1	81713	1284.766731003937	41.174967324762
1	82181	1291.890835587012	43.072656159244
1	82231	1292.561356837822	56.126495594774
1	82440	1296.967797457628	31.113258504825
1	82465	1297.337046370515	48.107663316689
1	83191	1307.461293411728	30.159168902073
1	83497	1313.039337767793	20.477980929971
1	83841	1317.085557355002	32.318826351065
1	84099	1320.904500794784	23.936703337156
1	85089	1337.737689588075	24.698351820282
1	85672	1345.741701084461	28.656143729459
1	85714	1346.359439906803	38.898146495075
1	85780	1347.973197814483	50.636151443968
1	85971	1351.435679606463	76.079629119804
1	86292	1359.906756506159	22.169066918084
1	87324	1376.222403537267	29.862963630464
1	87450	1378.056715501149	30.083517686666
1	87484	1378.50058985512	100.41729680117
1	87517	1378.766728284777	57.862227489993
1	88295	1392.268577539321	100.37774195231
1	88932	1402.336643960093	23.569915675316
1	88957	1402.934901789636	26.712498252369
1	89271	1408.674642938318	62.932941853857
1	89313	1409.001070851294	30.944355350145
1	89824	1417.49188979434	38.99129993922
1	89841	1417.520080801097	57.613324294938
1	90076	1420.67671250614	28.408134966819
1	90725	1432.552191377187	23.877548438869
1	90799	1433.431275425585	81.995595819122
1	90849	1434.38745140906	32.050807448967
1	91041	1437.047379705615	34.112477915979
1	91625	1446.379345836051	28.859265034954
1	91751	1447.940189639569	27.263477133429
1	91835	1449.689240812308	40.688169961014
1	92016	1453.21254012413	20.660348746943
1	92050	1453.962536767822	36.470646973482
1	92417	1459.658059034719	25.270607625659
1	93455	1476.462937521928	22.500400754106
1	93563	1478.095554636883	44.664279211298
1	93604	1478.270677339751	31.8913315037
1	93915	1483.34853887234	23.690479837621
1	94271	1491.521415298842	43.581225659273
1	94949	1501.911164139251	23.6404867995
1	95182	1507.221942436272	30.759004914344
1	95331	1508.948214135079	71.900834429464
1	95625	1512.89146136107	59.67892123694
1	95773	1515.824833360249	37.729278723366
1	95939	1518.915308294864	27.393892996022
1	96633	1532.541101304956	49.192562432616
1	96692	1533.532205774178	24.583991639099
1	96742	1536.279219968094	23.387758607024
1	97419	1547.32766713801	28.412358843146
1	97486	1548.156306967894	32.331473607645
1	97626	1549.70514508419	47.793980944939
1	98120	1557.729077320334	25.187976015378
1	98245	1559.646124851098	109.95688403879
1	98328	1561.635490694539	54.413548258267
1	98345	1561.803949176188	25.524729208094
1	98387	1562.530389021492	28.998183247314
1	99482	1582.083719894311	24.354642573977
1	99524	1582.438073824734	20.634124648546
1	99541	1582.586389498263	22.940264647165
1	99606	1583.288822538701	20.758433517209
1	99907	1586.926737370857	39.599070232847
1	99932	1587.00027128125	38.843964313356
1	99982	1587.942346124697	26.306855430158
1	100150	1590.704030085782	40.998885001592
1	101082	1605.54117667575	23.103102851016
1	101141	1606.376803297332	23.790413799069
1	101706	1614.855413715151	27.928676344294
1	101966	1618.260513269228	31.260241987978
1	102106	1621.86397046878	39.780250574469
1	102312	1625.226641751376	41.937819212675
1	102454	1626.926685259789	20.549881962457
1	102904	1634.376919592853	46.434573468156
1	103787	1650.450855796772	32.190342527544
1	103921	1652.21099560353	26.984353852154
1	104179	1655.772228253441	33.908257784661
1	104421	1659.074770678117	68.370740592335
1	104586	1662.595560352288	47.740146637137
1	104685	1664.063812276049	37.13712701626
1	105050	1668.816587722556	34.439668129703
1	105865	1682.846874021165	20.251313668877
1	105932	1683.575266819489	27.803038566048
1	106090	1686.487388144981	27.412617466864
1	106432	1691.539010362366	27.475198086317
1	106939	1699.551198996958	94.010022321208
1	107770	1712.281681112416	25.794292967435
1	108327	1720.780403934626	21.229204937668
1	108552	1724.100556623572	73.6497008268
1	108702	1725.661364019375	73.450368415845
1	108934	1728.840677525721	60.024089803165
1	109593	1738.928217645363	47.389207282997
1	109743	1741.951853089182	29.670171976766
1	110601	1754.466467119485	71.61959309832
1	110668	1755.696252860865	31.595696237293
1	110759	1757.165280688284	28.324603162563
1	110835	1759.069808078366	38.28940414374
1	110885	1761.017363970791	77.442097151302
1	111843	1778.39940031231	23.932933192825
1	111935	1779.487429614341	40.559211968978
1	112077	1780.820004290119	38.868151200937
1	112194	1783.090940893446	27.394688032581
1	112344	1784.011721137061	22.99435716627
1	113256	1798.624540464109	20.225140151799
1	113489	1803.241054630662	22.421050340543
1	113673	1805.206060884504	46.136252806138
1	113723	1805.599073480544	79.937709461169
1	113850	1807.25378028559	27.766350671249
1	113875	1807.717727962793	23.706006825732
1	114306	1814.102008908898	31.011068015452
1	114496	1818.940411050019	20.31587058591
1	114579	1821.019676188303	63.854395500019
1	115001	1828.697300301537	23.491239417033
1	115778	1839.244657408729	25.142648499831
1	115819	1839.706483935939	20.76607288592
1	116036	1844.427689058884	36.709961096091
1	116120	1846.785758541254	39.531978255664
1	116612	1855.185235830633	26.487935529096
1	116713	1856.864102628802	53.62304799814
1	117054	1863.9648813524	24.720223943671
1	117197	1865.961945967441	44.942269779138
1	117321	1868.121084672083	23.693395613199
1	118321	1882.471312659065	25.607210030263
1	118705	1890.666440820499	26.701559468099
1	118880	1893.324385572301	53.617901636362
1	118897	1893.56890847256	25.447823800477
1	118980	1894.195089955676	47.409331414422
1	119038	1895.823415794765	90.224342314221
1	119565	1902.767846102748	20.296533443683
1	120385	1917.097846537786	21.274430743021
1	120444	1917.86576438612	24.541378813819
1	120695	1921.298204282558	30.631763462059
1	120787	1923.215374974734	29.646466502174
1	121178	1929.316504314458	35.121414358782
1	121229	1929.575443442674	26.807597339926
1	121431	1931.977757567567	66.015811600126
1	122069	1943.527808222441	20.312433247707
1	122435	1949.54030643055	94.355070599917
1	122517	1951.433577202632	21.858133759958
1	122992	1960.571860123335	31.255355808877
1	123433	1969.819931690426	20.279625259876
1	123509	1970.845503608325	49.547299325767
1	123725	1974.17000000404	22.736422801408
1	123750	1974.685559524137	31.157751301696
1	124076	1978.820609962021	60.954845575901
1	124751	1988.361206532324	27.789346408989
1	124951	1992.036692944	21.191189335675
1	125175	1997.522680454932	23.352680450892
1	125209	1997.903687288302	65.925929720735
1	125234	1997.960914045806	28.14098235538
1	125276	1998.201410229258	81.103563691472
1	126052	2011.272268210797	22.911061678473
1	126185	2012.650380291255	37.964820767118
1	126285	2013.511619017922	21.474926073922
1	126385	2015.975037689094	37.154427727073
1	126727	2023.034781888004	25.131094599702
1	127376	2032.116412921606	33.915002692348
1	127610	2036.209120871715	22.697501853793
1	127742	2038.101825751031	22.126788061937
1	128231	2045.866871178896	34.594602968099
1	128381	2048.190713562461	50.229799516655
1	128712	2053.373145412708	40.722765121453
1	128737	2054.167249905838	31.132468017834
1	129117	2060.505276196783	28.388863275177
1	129142	2061.071363649059	24.862242777344
1	129907	2073.193423291549	75.670742836617
1	129990	2074.127984269321	25.93727070686
1	130647	2083.866060255145	30.492914842437
1	130706	2084.567826070376	38.70095489148
1	131092	2090.132569757179	52.030744006148
1	131549	2097.025707767932	36.520431571149
1	131657	2098.5178830162	37.446519367141
1	131800	2100.23444687777	46.067196971932
1	132580	2113.113578754907	29.247518499762
1	132622	2113.759173786941	23.626604029762
1	133231	2123.717835635223	26.692127867291
1	133356	2126.518784790393	53.325361498844
1	133398	2127.381314532126	28.863431515926
1	133415	2128.067646316378	27.833199438608
1	133716	2131.964421422258	47.396595351882
1	133957	2134.870227067317	21.75664831241
1	134611	2146.915191218971	72.78720694965
1	134869	2149.796979477407	23.278194687014
1	135144	2153.322652009832	25.941337477706
1	135819	2162.073101654543	30.108680232285
1	135986	2165.105201313786	41.387365678563
1	136285	2169.515005219329	22.599814000358
1	136697	2178.734830020608	43.864602953291
1	136939	2183.858534215228	34.061554737821
1	137107	2186.230117697084	58.162471380706
1	137149	2187.13069118137	25.057589526827
1	138462	2210.379834769286	57.057182759454
1	138554	2211.713816264798	25.483698567714
1	138713	2214.427484039716	49.32228272593
1	138730	2214.656157665014	35.921327644406
1	138763	2215.564073469136	46.049068249807
1	138821	2216.348349036623	29.217657855253
1	138897	2216.805948263621	103.04677447668
1	140113	2238.246672281247	26.532856016449
1	140213	2240.198432441723	56.339898226495
1	140238	2240.484496255934	25.82833859092
1	140373	2242.426788410574	25.620840146953
1	140465	2243.899819610186	29.47233557047
1	140822	2248.407487858219	32.843414389083
1	141097	2252.704106480802	42.324271711516
1	141515	2259.290172803756	42.941823767133
1	141650	2261.631539232922	21.433106791199
1	142106	2272.741964671712	30.315176261138
1	142241	2274.025648579205	21.321542098403
1	142903	2283.943465545704	43.45896928977
1	143399	2294.495507329597	46.088019471378
1	143533	2296.429013029729	52.529193419543
1	143643	2298.341024230139	24.315375650934
1	143736	2300.346726762154	27.604762090442
1	143844	2302.259990960078	42.969818156322
1	144060	2305.720490461172	67.473818179925
1	144604	2313.92891625435	29.985450708646
1	144933	2320.343923801606	23.914910771877
1	145366	2327.042753931365	24.782762971287
1	145608	2330.676171252809	24.955680791637
1	145809	2333.994328171053	35.653303940914
1	146200	2341.036282924544	40.68955616239
1	146658	2347.725333766294	86.093794533372
1	146734	2349.284077926467	35.355161672117
1	146834	2350.396428410614	55.900921081017
1	147241	2358.05171914545	27.375547892641
1	147316	2359.240478306733	38.896554505127
1	147825	2368.766513152015	27.730230227471
1	148312	2376.236365476105	28.511031709811
1	148655	2382.438008966942	48.443680795889
1	148722	2383.774034726095	25.722315580645
1	148831	2384.830658705192	57.787904773827
1	149047	2387.128958353638	27.888480046905
1	149533	2394.650764712171	44.254336301557
1	149891	2400.279377048101	24.043011571996
1	150284	2405.894333582192	21.063674877
1	150428	2407.821701188101	24.047666462006
1	150661	2411.378278671014	28.940269704072
1	150911	2415.429940902321	20.77917619015
1	150962	2415.606477601865	28.477519248227
1	151400	2422.55320191783	22.273824869729
1	151707	2428.191988391972	78.907910465505
1	152192	2433.783993221713	65.017480069698
1	152343	2435.907812390898	20.477871488577
1	152508	2439.228037214062	33.33370363187
1	152891	2444.779995429882	36.958294241781
1	153092	2447.754422267531	36.376143596517
1	153167	2448.394725776061	20.202737384089
1	153274	2449.815564740894	27.262362823064
1	153474	2454.079201403894	20.295208182181
1	153649	2456.785542053644	20.877729662746
1	153955	2461.385748615444	45.779271013579
1	155248	2481.693072587224	24.90753053358
1	155431	2484.278266508304	35.883540732243
1	155623	2488.358574649946	49.130537435884
1	155740	2490.321640916172	45.54164548629
1	155790	2491.378790992581	37.299589588687
1	156023	2493.19865637366	31.812907758216
1	156197	2496.755917534648	46.940352793754
1	157245	2513.84146453912	22.462673546539
1	157551	2517.689304462255	24.490648088595
1	157634	2519.820307932744	23.064390398096
1	158214	2530.85916869293	83.104746425399
1	159379	2547.16420483799	58.805630188044
1	159546	2549.312660792291	65.034394283987
1	159604	2550.834091689143	31.013783756399
1	160318	2563.310294959146	81.617222371922
1	160678	2567.779385273903	50.090080811648
1	160869	2570.442884182345	56.601419643225
1	161136	2573.736749605287	22.902657916144
1	161344	2576.419707921118	29.255503083128
1	162393	2593.560398207309	62.701229514379
1	162468	2594.9438530295	27.164467755597
1	162702	2598.901925876053	25.165176270766
1	163200	2606.753706512021	30.333998590903
1	163225	2606.926911717748	36.484027535403
1	163800	2616.685635990329	126.36399507416
1	163941	2618.502605793327	24.942207586018
1	164285	2623.901314412333	60.591019453187
1	164436	2626.599286436178	77.286625643887
1	164659	2630.359256018864	35.415402989364
1	165266	2639.265176118333	20.762570325006
1	165308	2640.09902201508	33.345315503059
1	166049	2650.486360578027	23.887074141849
1	166396	2655.877445537046	39.191809546717
1	166463	2657.491348456326	50.564436738578
1	166513	2657.776944218654	58.875018342601
1	167755	2677.419234455474	21.541788918428
1	167854	2678.747781533744	28.261420955717
1	167979	2679.689535590777	55.788221178444
1	167996	2679.876255783215	39.777233768135
1	168237	2683.28210106611	25.790752609784
1	168563	2687.749250733396	29.972306514742
1	168680	2688.92650549401	49.661329375677
1	170059	2710.296166864482	30.606631273705
1	170092	2710.57824124248	30.701985459265
1	170359	2715.925624006142	32.643522940032
1	170475	2719.687997592588	31.938746859192
1	170534	2720.375035497424	42.95580104195
1	171050	2726.861856368142	48.114074834398
1	171481	2732.626331086698	102.26707506783
1	171581	2734.336253077478	23.758011834998
1	171845	2739.876939166306	23.951315160164
1	172044	2741.759018773296	31.462851908814
1	172846	2754.62022787852	65.69372238451
1	172863	2754.759730586495	22.133399499797
1	173128	2758.5441038387	38.856106246112
1	173329	2761.053478198509	26.717225121031
1	173713	2768.834878573502	28.957939407196
1	174012	2776.526628742319	21.906400863799
1	174196	2779.580516088614	59.20548059119
1	174213	2779.650995063533	37.891976290237
1	174289	2780.078839560319	21.534735721619
1	174973	2791.497252460768	36.737521874273
1	175073	2792.885245132166	31.831766933657
1	175148	2793.721304918234	66.859448550092
1	175717	2802.90052323208	22.821683671761
1	175826	2804.116938449328	27.590309707009
1	175859	2804.372973292394	24.721978228861
1	176576	2815.782891192496	46.948012618994
1	176593	2816.461436314516	23.57619118235
1	176626	2816.736248901921	25.238996441153
1	177201	2826.056184114774	23.155660882694
1	177543	2832.275682748868	28.15874429954
1	177577	2832.938470259	53.357954170386
1	178115	2840.654737242292	36.281763949898
1	178232	2841.656095722453	25.873204529957
1	178257	2841.791125004064	25.329688689548
1	178615	2848.085428567866	31.349179665945
1	178848	2851.161396741058	57.440091822824
1	179392	2861.394126371549	28.455656112549
1	179574	2863.494901843361	22.840164601069
1	179764	2866.174857406624	40.11867329185
1	180063	2870.031764494103	37.756081745235
1	180412	2875.875388295401	24.713991554343
1	180494	2877.508651916437	35.852556193984
1	181116	2885.73375618872	24.339629817171
1	181317	2889.388571290785	41.303142722919
1	181981	2900.33866014224	36.843758298879
1	182006	2901.05478670614	25.179398410739
1	182023	2901.256575306153	31.22481081205
1	182139	2902.702324630754	36.52746722413
1	182683	2911.959950970418	22.571379679633
1	182931	2916.528818321933	30.795062133213
1	183182	2921.464813661796	20.208238355643
1	183325	2923.226070448006	81.434945443942
1	183367	2924.163657466534	23.824997324294
1	184184	2937.97001356783	36.91522686169
1	184268	2938.684864611437	26.724913641019
1	184378	2940.155591181999	37.453266551245
1	184785	2946.674414740933	22.510757274399
1	184885	2948.207455529261	31.678637207328
1	185169	2954.08896638236	32.624152720564
1	185395	2958.168275388025	34.942204940019
1	186319	2973.177620829676	35.207607261846
1	186336	2973.693577148168	33.537985966169
1	186702	2979.21085167825	31.003396148989
1	186828	2981.889176796492	27.800210414132
1	187138	2986.807395950409	109.29874403397
1	187620	2993.315841929582	35.147566541557
1	188205	3005.768059754855	23.878882958363
1	188496	3009.33102394326	36.153403113584
1	188613	3012.331830802757	73.64696619132
1	188714	3014.157190573654	27.349794623245
1	188840	3016.019342140385	69.344927399452
1	189739	3030.842618665393	51.631766987143
1	189781	3031.397878264535	38.082036334953
1	189839	3031.952453989641	58.258876841473
1	190165	3039.325182076741	23.305839936356
1	190182	3039.327321087599	26.995490284842
1	190787	3051.224807947348	20.382189281955
1	191682	3064.325551074439	50.168360500785
1	191958	3068.295168972945	58.964145029685
1	191992	3068.579576024788	62.811516269933
1	192874	3081.400377697161	42.07519562042
1	192981	3082.800554861717	43.473233774118
1	193180	3085.532918858421	53.58046486878
1	193895	3095.137281742874	63.739403478339
1	194070	3097.958995677226	29.663826704281
1	194277	3102.218833228737	33.639257203949
1	195052	3113.057415503141	31.65703780598
1	195951	3128.309418865049	42.776500006628
1	196042	3129.437413607248	65.111862532809
1	196392	3134.121992774369	21.064577271228
1	196501	3135.988311024616	84.763503077268
1	196677	3138.365226455882	40.406230778656
1	196736	3139.938831547331	37.719998318594
1	197036	3143.171065979511	60.370511117794
1	197558	3152.443273637354	57.30599189448
1	197823	3156.11814784802	27.808728982971
1	198017	3159.646700380749	30.209286773501
1	198059	3159.740300878741	23.751989854125
1	198766	3173.530876320454	39.408883546085
1	199052	3176.736186050848	20.618038202828
1	199093	3176.900319275434	24.45704563808
1	199467	3183.640913804745	40.469847825234
1	199517	3184.292244722455	44.353413175124
1	199742	3188.253769833947	49.888543378065
1	200181	3195.022808715457	21.491932395003
1	200256	3196.429947481194	36.689646602453
1	201596	3218.08245707647	41.346271025622
1	201721	3220.726622904233	36.434378181778
1	201738	3221.031214857827	44.130895582393
1	202197	3227.632994541744	32.610185826287
1	202314	3229.428536828975	32.998589347781
1	202471	3232.208272466686	48.567358661941
1	202562	3235.460422624629	47.206652790682
1	203057	3245.409578940358	24.378364082531
1	203574	3253.372191453746	93.725491072997
1	203667	3255.618510177813	27.985515636069
1	203767	3257.111575714779	24.903303248093
1	204103	3261.267891754982	25.807469130353
1	204327	3263.860037100485	43.133414196252
1	204710	3270.491502781779	25.081923841421
1	204975	3275.509688011328	46.081151182353
1	205067	3277.503887319994	59.421430243524
1	205462	3283.494195106937	30.122003653191
1	205623	3284.335478358295	27.223902643516
1	206198	3296.329153057022	35.06126130204
1	206414	3299.000708794288	23.49102078296
1	206729	3305.801027448185	28.297140128191
1	206864	3307.224062371512	23.729867264575
1	207015	3308.358234429987	37.866731648208
1	207319	3314.344427010561	58.725916832748
1	207369	3314.816288704734	50.956251604249
1	207651	3320.26088692261	23.931733865588
1	207676	3320.731231489303	36.395753131008
1	208468	3331.91746856207	24.693406190558
1	208946	3337.849798722706	23.505371712145
1	209004	3338.072464777719	39.071755983431
1	209079	3339.11065093195	30.752416501963
1	209411	3346.988934886949	32.172646182215
1	209919	3356.85957057524	36.59868365263
1	210086	3359.851648231379	21.77918345366
1	210511	3366.525930979857	28.676132257151
1	210692	3371.161457621645	39.243989059575
1	210809	3372.352880267367	25.363945380418
1	210826	3372.507745194394	51.776513705091
1	211154	3376.508910245527	70.707882797342
1	211314	3378.368012820053	21.508442244813
1	211331	3378.414401364654	39.303750432704
1	211918	3387.761660662621	21.235729682764
1	212217	3392.242344564295	21.08088694265
1	212251	3392.864568914239	20.356823719845
1	212798	3401.80963988916	29.456759621793
1	213072	3407.970733653308	29.602720833255
1	213314	3411.482672968313	33.068271603659
1	213554	3415.073191503166	27.311530840545
1	213887	3422.240084454994	45.731174209467
1	214171	3426.340336114455	66.488687883076
1	214489	3430.119892492674	37.877547928379
1	214741	3434.275060327697	26.304326674389
1	215204	3440.493674412605	29.011001444292
1	216078	3454.69047320685	61.825904292611
1	216154	3456.03564649553	40.962454992364
1	216445	3459.951522946804	29.83163045413
1	216504	3460.710609762361	38.470525307367
1	216521	3460.889227881304	34.548891766849
1	216945	3467.36000297914	65.55036308998
1	217755	3481.267208931216	26.576735724366
1	217856	3482.436059969845	41.94238555724
1	217890	3482.518603225056	22.567080278252
1	217966	3483.172080405573	22.282852524269
1	218071	3483.726438181345	23.015828418984
1	218782	3496.331526197703	62.056465870006
1	219474	3507.869258066706	25.433198096861
1	219617	3509.547178030454	26.375097624881
1	219700	3511.446315009168	27.719876827823
1	219776	3512.495954097842	56.460307602312
1	220284	3520.519988214324	53.159985235184
1	220758	3527.795010195355	46.527801264139
1	221083	3534.471832082697	26.602574015991
1	221267	3539.444077739376	29.896899708922
1	221943	3551.738958192844	39.243004095002
1	222193	3554.872377775307	43.426062766139
1	222575	3561.197897942949	26.726065860252
1	222617	3561.68425642297	22.240178683594
1	222717	3562.978773413388	35.183763218033
1	222834	3565.765052081667	69.433525883964
1	223418	3573.283730891122	21.544772698278
1	223501	3575.816553952149	93.297950727093
1	224359	3588.44319987705	26.75894345408
1	224417	3588.756311220493	22.991259138826
1	224551	3591.172439479278	70.652451264954
1	224775	3597.566044566171	24.282313675049
1	225258	3604.57379489565	28.757240943501
1	225400	3606.584423902702	45.386525959753
1	225776	3610.662604707144	55.790226931837
1	225835	3611.283251886157	20.110812406879
1	226128	3617.162357328852	54.183583915464
1	226865	3629.022621710621	40.579421833571
1	226949	3629.726603089081	32.16055852291
1	227159	3633.708106146609	29.134311250959
1	227193	3634.868677113353	46.11236589286
1	228078	3647.280793395217	30.118436066365
1	228211	3648.853661693581	42.269237790879
1	228252	3649.610926708463	38.327674822306
1	228607	3655.84196401726	26.115360928179
1	229041	3662.449797009394	27.581119896041
1	230090	3677.659426178653	28.805764485072
1	230215	3679.424517284767	50.401895574146
1	230430	3684.609784296374	73.94717958923
1	230573	3687.288985916737	40.00819252152
1	230781	3691.158699480476	57.450593333867
1	230882	3692.640280573646	36.798316556386
1	231240	3698.568697865151	48.957771156688
1	231800	3707.333186588571	27.908669303804
1	231908	3709.459895537693	47.010098528299
1	232224	3714.551858842126	36.892432663473
1	232266	3715.130800153606	23.97210067313
1	232283	3715.401682056993	30.791897760619
1	232408	3717.24768326844	24.607402694794
1	233024	3726.462596766886	39.173610850149
1	233556	3735.399461583841	20.847602741715
1	233606	3736.256924173005	21.126124019399
1	233689	3738.418705666723	31.085519078152
1	234330	3752.131529110591	25.668932343705
[...]
1	1626672	26115.139641530534	32.871403055326
1	1626888	26119.545356402975	49.501053927148
1	1627082	26122.596692864802	54.299413239791
1	1627189	26124.216259900596	25.338379709054
1	1627914	26133.798188317935	25.252127403024
1	1627973	26135.056035333115	31.48260947134
1	1628090	26136.210995894832	21.071354364298
1	1628283	26139.390633127239	30.304633222384
1	1628582	26143.400291489629	23.854935086654
1	1628846	26147.651146306414	25.054453441612
1	1629312	26153.825800672665	20.02761235473
1	1629846	26163.682243883294	55.702447884238
1	1629863	26163.682499677739	28.626464344624
1	1630288	26170.607413655131	34.396417760299
1	1630396	26172.548535771079	48.332275870483
1	1630698	26176.811553343746	33.411261854117
1	1631462	26187.475216294612	33.649415621947
1	1631503	26187.953274506346	24.271030623052
1	1632123	26199.475399945595	26.926864174516
1	1632140	26199.642282861796	60.251649734557
1	1632199	26199.960809879384	52.30966357297
1	1632274	26200.825706687064	24.014153343318
1	1632333	26201.496487873462	37.813988195723
1	1632693	26209.446246634091	38.83883297896
1	1633416	26222.354203496656	21.528496809592
1	1633566	26224.052309934061	24.091500054677
1	1633674	26226.413858358081	26.938458412486
1	1633749	26227.442368584905	39.967152290293
1	1633766	26227.475003684684	25.978515811222
1	1634489	26238.35613203452	38.713849172724
1	1634563	26240.109319551257	52.156045044911
1	1635322	26250.044446347011	27.690242850355
1	1635703	26257.894379840051	48.44813320596
1	1635962	26260.94966291101	22.59353087649
1	1636363	26266.862270013022	26.752950461765
1	1636695	26272.819014587449	45.376646002544
1	1636787	26273.40734324458	49.355033310519
1	1636919	26274.790301908734	24.745855561723
1	1636986	26276.492524877713	49.017521193029
1	1637752	26289.331511545346	22.469241532324
1	1637968	26292.978819465771	35.08443962572
1	1638027	26293.529636370335	67.115778012254
1	1638044	26293.613682657105	20.794668069656
1	1638253	26297.149146173605	36.199483262595
1	1638370	26298.376575071301	21.884050193588
1	1638446	26298.607810198511	23.817508289777
1	1638984	26307.681373151495	34.274029906915
1	1639541	26318.37657918853	21.227433014925
1	1639574	26319.252580778705	25.6388981216
1	1639616	26319.49875459989	26.519935134119
1	1639734	26320.762058824808	22.385483753507
1	1639977	26323.356730521398	34.025218976052
1	1639994	26323.369887445059	24.762077246548
1	1640303	26328.215054716763	20.533681565268
1	1640956	26340.637307221245	47.10767085091
1	1641324	26345.872568298518	22.502680853459
1	1641524	26349.683249974108	31.306670785578
1	1641922	26353.821116973488	34.568536194783
1	1642210	26359.324133553707	39.825378953817
1	1642260	26360.065641069692	31.850586352929
1	1642536	26365.917510442518	42.56077992112
1	1642694	26367.554082485138	21.68151418662
1	1642944	26373.371391965217	23.688141991109
1	1642978	26373.616326870856	52.854268046048
1	1643871	26387.512745138901	28.188611585194
1	1644321	26394.508152778027	26.954070292889
1	1644363	26395.451331700244	21.835004829388
1	1644689	26399.331903754841	45.510786781353
1	1644978	26404.182927568549	30.811535603332
1	1645087	26405.702218408144	39.784707965626
1	1645403	26412.029113459106	71.391806237861
1	1645662	26415.957441888609	20.506110188365
1	1645978	26421.150386812666	61.084745742974
1	1646061	26422.326369721684	34.813624582783
1	1646095	26422.710657217255	28.202504439228
1	1646335	26426.15050780108	21.967580232531
1	1646968	26437.148731846216	37.816828091375
1	1647085	26438.278475919719	22.32103403111
1	1647169	26438.92557725666	33.223358848516
1	1647733	26446.87300471627	20.72249691519
1	1648172	26452.594201163856	29.883543946601
1	1648488	26457.397485918085	20.248754071869
1	1648855	26461.554753512773	23.276277593054
1	1648872	26461.946080785046	23.020503528386
1	1649492	26471.822777720745	49.496407999061
1	1649592	26473.757627206815	61.728513747709
1	1649642	26474.465863295492	21.871662131636
1	1649977	26478.744731604989	21.347245686904
1	1650224	26485.067090697601	38.194085981331
1	1650516	26490.201753547696	28.647000034923
1	1650841	26496.212051831243	21.746188535751
1	1651275	26503.305989569161	41.359908784115
1	1651375	26504.53658629549	83.386199482824
1	1651392	26504.591415087123	30.833787880308
1	1652173	26518.580617791325	22.368565960082
1	1652471	26524.314311824691	34.112558276995
1	1652521	26524.987307352496	39.920216654895
1	1652729	26529.339736014523	26.033746445362
1	1653187	26537.535933441839	32.944518354716
1	1653454	26541.544835314055	62.800103709066
1	1653503	26542.920909359953	38.384323064463
1	1653810	26550.051886925115	25.064579572619
1	1653893	26550.831081633418	26.516769808727
1	1654358	26558.501630550536	20.965697108697
1	1654627	26562.646005174397	33.306269159874
1	1654884	26565.334676589852	22.413767229899
1	1655351	26574.365265997868	23.53418436445
1	1655666	26579.93842589644	38.393590582385
1	1655876	26583.61228789702	25.110657346484
1	1656034	26585.928411734865	114.10563401412
1	1656193	26587.331544946908	21.996868357056
1	1656477	26592.382278474849	42.330391549734
1	1656759	26596.906231223574	34.260226049177
1	1656835	26597.568449243982	78.987831452657
1	1657825	26612.360578574713	26.432166839848
1	1657891	26613.360061411528	38.99479541366
1	1658175	26618.673411105071	35.061123208051
1	1658673	26627.697256831642	30.12880758766
1	1658931	26633.461385712547	53.522959816107
1	1659190	26636.288871914425	39.382640690851
1	1660111	26648.278263142899	55.89598466805
1	1660169	26649.408497236896	37.047918662183
1	1660317	26651.85095087645	38.490889464922
1	1660573	26655.829394991156	68.497850044248
1	1661216	26665.031947122879	28.743075208454
1	1661250	26665.322676071963	37.625419240321
1	1661484	26668.76035292054	50.086941815469
1	1661600	26670.568615403295	22.290352260396
1	1662049	26677.235596696004	43.774210983457
1	1662248	26680.307663052683	30.899165815787
1	1662763	26689.376874868239	33.547479877083
1	1663568	26701.619980637311	36.588033514432
1	1663753	26703.511286576652	34.750933656112
1	1663828	26704.937212615555	53.086261739105
1	1663971	26706.563815383804	41.241139311841
1	1664228	26711.8246562304	41.256040827105
1	1664968	26722.952115949238	21.332135311927
1	1665135	26726.087589593029	36.71071472479
1	1665327	26728.411274041145	21.847458657341
1	1665445	26729.907286310566	52.671689614562
1	1665635	26732.197630179451	28.686343602799
1	1666089	26740.947581846799	36.010369231244
1	1666189	26742.581007625197	62.273344572514
1	1666413	26746.053650260969	23.101534311731
1	1666939	26755.024439486959	26.613165445814
1	1667416	26762.068866926753	29.871236747302
1	1667433	26762.200479552994	21.252897706195
1	1668108	26773.966564141357	27.912913880388
1	1668213	26775.76163536384	49.674045770811
1	1668355	26778.053134675845	23.028695188886
1	1668574	26781.228233583488	51.320947272922
1	1668823	26784.113720353017	21.913240800023
1	1669132	26787.773217447582	25.704350520829
1	1669828	26798.239752008927	86.415095778527
1	1670634	26809.316284703865	33.554649340025
1	1670974	26813.397322608881	35.344187933036
1	1670991	26813.596698527533	71.015690902336
1	1671114	26816.093789784265	28.320572336683
1	1671548	26821.879523529997	40.651289946509
1	1671723	26825.704836344348	51.738272202991
1	1672318	26834.980590222872	21.583267613991
1	1672552	26838.625944695022	54.512224342005
1	1672577	26838.904979871118	40.665227862191
1	1672807	26842.587716041741	28.991017514208
1	1672824	26843.484986091772	27.391196307507
1	1672950	26845.838144720346	36.521860016481
1	1673316	26851.673686884093	29.794163354096
1	1673633	26855.225844325544	29.521007981196
1	1674638	26871.778339362244	25.940194641898
1	1675165	26879.331288568648	35.846302476876
1	1675364	26882.518929834969	30.845242950876
1	1675692	26887.574845428227	32.349001102683
1	1675999	26894.410289613968	55.784344918946
1	1676190	26896.343848836004	61.363258613132
1	1676241	26897.088281151903	25.309941789659
1	1676458	26900.707540420442	61.802560549324
1	1676666	26904.045701503062	21.526771668093
1	1677166	26914.06604302096	71.478326979219
1	1677317	26916.284091493294	21.873801879326
1	1677626	26921.76641336525	42.435124796602
1	1678157	26930.563966958415	26.518265455353
1	1678290	26934.63284597738	20.56680295642
1	1678684	26939.851516233058	23.567424739764
1	1679225	26946.513242363503	50.169393527499
1	1679384	26949.94299226163	49.235451841188
1	1679682	26953.760356467736	66.185511039509
1	1679789	26954.943000421307	33.176587056057
1	1679822	26955.860840853621	25.296873895206
1	1680113	26959.500304814573	62.41202366267
1	1680514	26964.114859410917	24.263343177859
1	1680765	26967.257822655647	20.744580292144
1	1681477	26979.390921412198	24.447920990891
1	1681585	26981.67004453883	47.03719856145
1	1681753	26983.393326025256	33.450333763626
1	1681820	26984.80453382139	25.304229006817
1	1682070	26988.087302320938	23.972442910021
1	1682161	26989.794553514887	36.034197047151
1	1682361	26994.951680292411	39.09083943879
1	1682886	27002.442619115944	23.051697703746
1	1683295	27007.773951255601	24.380625230345
1	1683486	27010.304663530485	22.217361209547
1	1683544	27012.370056384724	30.700011845894
1	1683603	27013.087296445607	28.282762624217
1	1684157	27022.954200139331	20.511581023387
1	1684967	27036.816758855385	29.042807599784
1	1685218	27041.380319330928	51.585765816041
1	1685444	27045.139932629379	32.052636183772
1	1685519	27046.457766791086	23.503566651755
1	1685867	27052.879702367034	40.50964598231
1	1686570	27063.063627533995	21.683308203067
1	1686918	27068.66750528924	58.362841758755
1	1687325	27075.632759863191	108.37493720754
1	1687359	27076.050276638402	23.170574271368
1	1687426	27077.476588597724	82.524908305313
1	1688126	27088.952869930922	42.495103139836
1	1688360	27092.6584953773	55.841736521915
1	1688543	27096.461444902011	33.397817368016
1	1688684	27099.019212725081	53.879280095702
1	1688835	27102.082035419313	33.414530130073
1	1689319	27109.943868213206	34.311108350015
1	1689755	27115.024642554941	22.366147177641
1	1689931	27120.009706520079	20.990493794998
1	1690357	27127.003401631327	30.541956729316
1	1690607	27130.548991692697	28.466956273384
1	1690724	27131.816296784079	55.766020145677
1	1691107	27137.496963515999	60.020374918275
1	1692072	27154.285380991295	22.469084207216
1	1692089	27154.561115762415	44.617247549209
1	1692180	27155.432933911154	40.408291356213
1	1692730	27164.570171983701	44.560465463622
1	1692789	27164.835716004452	37.832314373125
1	1693803	27178.176764078463	40.679800562464
1	1694034	27182.424440798128	28.139059806833
1	1694134	27184.288752861293	95.335882930371
1	1694251	27185.716033336155	21.145861352454
1	1694476	27189.082504581619	58.533512888922
1	1694510	27189.621833863585	24.786117859133
1	1695421	27206.366719635341	23.942278837213
1	1695852	27212.390833150491	28.102080289198
1	1695945	27214.818990180228	36.642226101765
1	1696086	27216.708419001746	61.275485090592
1	1696221	27217.827949244567	28.745444662948
1	1696471	27221.692804117506	32.070970253921
1	1697424	27235.714721920992	20.895731740764
1	1697582	27237.382657776308	20.674238774562
1	1697755	27239.665479526032	85.104363763617
1	1698015	27243.015474685258	30.624641534767
1	1698247	27248.088472547492	62.372439211337
1	1699387	27266.184686561605	59.817966926264
1	1699445	27267.371438496195	24.355963810937
1	1699553	27269.819290046219	32.436632269911
1	1699922	27275.075063004607	53.382258887101
1	1700507	27283.669957003813	35.581484456321
1	1700889	27290.599267952798	72.771318708231
1	1701032	27291.870075942127	52.204596416095
1	1701229	27294.436093473251	58.721371552259
1	1701371	27297.100653271914	27.281363225695
1	1701587	27300.763752761691	33.392314265496
1	1701954	27307.640282609018	41.455596047413
1	1702029	27308.945161624749	25.275204620936
1	1702178	27311.676600338661	21.077332385863
1	1702571	27317.580453589827	20.479800317913
1	1702904	27322.994853136985	28.558759663734
1	1703113	27326.032859704502	34.162783762375
1	1703788	27335.933192828083	60.858129823476
1	1703940	27337.925396471171	26.24879613251
1	1704272	27342.850707760047	25.27025417022
1	1704564	27347.333821080195	38.388659455446
1	1704689	27349.149843851679	48.386091089988
1	1705436	27360.026917517981	37.032064380996
1	1705461	27360.460926499808	34.428066795306
1	1705703	27365.481182321926	27.555785850755
1	1705803	27366.555639341114	23.704931581067
1	1706121	27371.213773837699	23.879952757504
1	1706171	27371.669171325992	35.735978497909
1	1706222	27372.340805788041	64.700523179023
1	1707442	27391.150551990043	25.669369668117
1	1707626	27393.887415343333	21.546609555292
1	1707676	27395.198183412547	23.529012086555
1	1707975	27398.596212106359	27.38243826866
1	1708032	27400.662211943614	34.1065726025
1	1708306	27404.559406381168	55.409562529489
1	1709391	27421.215118285978	27.327702942645
1	1709980	27431.080861052802	32.484648946443
1	1710121	27431.998147644682	27.438741263514
1	1710146	27432.314458362887	72.287540844906
1	1710532	27440.856988464641	40.194776521027
1	1710599	27442.124060038132	50.973508048089
1	1711433	27457.925812611048	62.727629198501
1	1711719	27463.921798928286	42.706680642308
1	1712531	27475.360752458099	43.046294095212
1	1712615	27475.750598785806	44.669737733004
1	1712782	27477.691395978602	117.23046947879
1	1712807	27477.986155457215	45.988007812533
1	1713154	27483.707460600359	25.781647989311
1	1713333	27486.438971252668	22.517172324382
1	1714236	27499.66635802243	24.305605564331
1	1714303	27500.278450805082	22.292295347867
1	1714626	27505.399779155472	29.649180369666
1	1714685	27506.022536370862	28.33114039226
1	1714750	27507.908003076403	24.200542476044
1	1714809	27509.388993770763	67.264933732631
1	1715539	27520.58088156383	79.723893099189
1	1715969	27528.402639776452	28.12418897137
1	1716213	27533.137722723139	23.748728952376
1	1716397	27535.826551213003	30.426772057531
1	1716577	27539.340523994647	33.317987623785
1	1716943	27544.643991485875	24.063109922045
1	1716985	27545.402814367319	45.736456344889
1	1717002	27545.619646444621	37.711643368218
1	1717508	27555.781611474284	69.342640221616
1	1717642	27557.657542302789	29.254902526337
1	1717885	27561.01948287848	21.678958883833
1	1717977	27562.136082405566	26.309531192563
1	1718258	27566.678301437214	21.058654992593
1	1718457	27569.247166355945	36.109443632806
1	1718801	27573.058174323321	28.414182837446
1	1719055	27579.167355298575	33.764540931256
1	1719264	27583.251535373834	25.593993071045
1	1719355	27584.342454044176	23.322971165696
1	1720199	27596.865517873589	41.083906399305
1	1720316	27599.35626300285	20.188907704275
1	1720833	27609.3947874155	47.258705009934
1	1721025	27612.506409181476	29.254873807642
1	1721349	27617.635465698181	44.57729137486
1	1721383	27617.924742294275	51.246440857061
1	1721693	27622.562741587817	38.220287543641
1	1722176	27632.232723421133	22.837936005633
1	1722201	27632.528783736178	33.172520733328
1	1722303	27633.519757158586	64.272590802641
1	1723109	27649.113044264154	26.550302676337
1	1723378	27652.606839349558	55.741321475969
1	1723446	27652.904127246135	34.97938495186
1	1723929	27662.731690019257	29.211932860671
1	1725046	27682.252876972836	29.646037623278
1	1725189	27683.701762836862	66.066297138681
1	1725323	27686.55926543133	23.827575412073
1	1725946	27699.213952968533	66.9812295474
1	1726229	27705.964595622655	22.262832785793
1	1726955	27715.232671470726	28.673406039396
1	1727030	27716.043888304169	63.139761058034
1	1727106	27716.634678633945	104.12826945247
1	1727173	27717.959602633598	68.846558369444
1	1727521	27725.629306048674	93.100522312496
1	1728162	27736.94853968391	30.983944061255
1	1728420	27742.610881205598	43.396928237065
1	1728437	27743.341103033811	28.108431563085
1	1728462	27744.164241465262	26.204638831664
1	1729371	27758.392184924969	32.762878876295
1	1729413	27758.569091441524	21.620551757614
1	1729498	27759.211280650503	42.576602016558
1	1729832	27763.554043033539	81.301166060703
1	1730095	27769.515908499084	53.472020194915
1	1730228	27770.947732775176	26.783491309914
1	1730287	27771.753741113697	28.412638079886
1	1730653	27776.032428813249	33.421547607651
1	1730868	27779.330498848063	20.761407406539
1	1731078	27784.72952745341	21.175484419871
1	1731472	27791.144507509457	31.933226858954
1	1731785	27796.559356727766	20.526927914517
1	1732889	27812.766994106783	28.037466653373
1	1733265	27819.285491911414	22.726135183648
1	1733399	27823.040102524781	64.647917599812
1	1733942	27831.411636919477	40.26712941002
1	1734084	27833.83396415651	62.886231381334
1	1734402	27838.765338510278	25.998344403495
1	1734618	27842.747686417118	70.993945303421
1	1734867	27850.971396753501	31.685904842087
1	1735877	27866.983843190444	28.218504680166
1	1735894	27867.394633243173	35.982996323696
1	1736385	27875.695046171419	96.364547323356
1	1736427	27876.084275121558	53.044172596777
1	1736485	27876.692576699596	42.858612543086
1	1736786	27880.189400045205	110.67349154612
1	1736919	27882.821389145184	40.073702728066
1	1737610	27895.273014922141	44.30161816864
1	1737669	27896.366472174672	20.671426003253
1	1737761	27897.420690299571	21.336415178013
1	1738377	27906.517829101173	39.123195858
1	1738853	27914.202781575466	34.013381530261
1	1739145	27917.992150118814	41.299573419218
1	1739571	27922.995405024869	25.574714725298
1	1739804	27928.325294782948	21.807465681775
1	1740285	27936.545557760875	69.561714570431
1	1740527	27940.632323275786	26.42954170032
1	1740919	27945.142499633478	48.776027458806
1	1741277	27951.410565574349	56.137550652208
1	1741344	27952.941204966962	24.615910184014
1	1741741	27961.802767988709	21.170444712923
1	1741864	27964.30460073645	81.483211591266
1	1741914	27965.378010677492	28.832452916617
1	1741948	27965.633954187761	20.491454554283
1	1742937	27983.322727052448	31.912161478099
1	1743004	27983.624136450453	60.628731425584
1	1743467	27992.043175398896	74.051025280082
1	1743701	27996.381414131956	31.003403454464
1	1743877	27998.313725578142	32.679771390381
1	1744278	28005.555947035777	43.753179047068
1	1744579	28008.984864555383	56.043659588421
1	1744596	28009.212274904575	25.588138454122
1	1744696	28010.880463574497	46.575862838047
1	1745442	28025.023579680556	28.6421655486
1	1746158	28035.988108942873	52.665381890425
1	1746175	28036.337420027968	27.352555472585
1	1746276	28038.2371628161	39.923437237958
1	1746344	28039.083751022695	28.203287448198
1	1746727	28043.971235025084	38.415287989307
1	1747203	28052.337515023368	43.125240118793
1	1747220	28052.496564871069	27.472985190513
1	1747726	28061.523577651767	22.439826629072
1	1747935	28064.235612908252	20.264377883168
1	1748442	28072.715883587371	20.219318716302
1	1748577	28075.211304098756	38.873884070788
1	1748991	28083.45163485819	21.928057206423
1	1749685	28093.765283536581	55.528120720481
1	1750112	28099.854455034328	24.643150935572
1	1750187	28101.082568128806	36.846955220554
1	1750287	28101.94762378995	29.231740202579
1	1750771	28110.471015631095	27.019380772905
1	1750829	28112.254258456008	120.21108305711
1	1750930	28113.69993615969	77.711827216817
1	1751406	28121.521327865831	69.183812842463
1	1751489	28122.433118475974	20.485494686024
1	1751590	28124.518266565391	30.75298302881
1	1752075	28132.96431175584	31.881743627034
1	1752322	28135.675707356386	35.821252322058
1	1752847	28141.540111996608	31.069096365513
1	1752965	28143.017487293078	30.76322883707
1	1753362	28149.925914896484	36.225978736794
1	1753610	28154.997535706016	33.476207840185
1	1753950	28160.246322123982	35.728055558591
1	1754228	28163.943435627905	20.925948334827
1	1754520	28168.273407075817	26.733295079209
1	1754537	28168.474030986718	35.509719230878
1	1754705	28171.419894073492	48.986775597518
1	1755386	28182.429042680386	32.503127783902

