version 2
run General-0-20220601-20:30:36-4016
attr configname General
attr datetime 20220601-20:30:36
attr experiment General
attr inifile omnetpp.ini
attr iterationvars $0=20
attr iterationvarsf 20-
attr measurement $0=20
attr network Lab3
attr processid 4016
attr repetition 0
attr replication #0
attr resultdir results
attr runnumber 0
attr seedset 0
param **.num_of_hosts 10
param **.test_arp_requests 20
param **.next_event_par 1.0/0.5
param **.pck_len_mean 1000
param **.pck_len_stddev 150
param **.pck_len_min 26
param **.pck_len_max 1480
param **.host[9].eth.arp_ttl 10s
param **.host[*].eth.arp_ttl 20s
param **.aging_time 1s

vector 0 Lab3.host[0].eth interarrivalTime1:vector ETV
attr interpolationmode none
vector 1 Lab3.host[0].eth interarrivalTime0:vector ETV
attr interpolationmode none
0	68	0	0
0	86	0	0
0	468	4.447048844073	4.447048844073
0	578	5.311909483414	5.311909483414
0	1019	13.682564371027	13.682564371027
0	1168	15.803235835957	15.803235835957
0	1734	25.703518026604	25.703518026604
0	1910	28.267187619193	28.267187619193
0	2465	39.262963282906	25.580398911879
0	2774	44.640390513877	44.640390513877
0	2932	47.285644681168	21.582126654564
0	2949	48.128754925538	32.325519089581
0	3042	49.126878556848	20.859690937655
0	3142	49.786114352741	44.474204869327
0	3192	50.702696733635	50.702696733635
0	4741	74.899843689694	70.452794845621
0	4915	76.569141217672	28.440386292134
0	5087	81.420764965574	32.293886408726
0	5121	81.663728550878	30.961031817243
0	5340	85.062263182397	40.42187266852
0	5964	95.159497050976	55.89653376807
0	6717	109.571374753407	33.002233535735
0	6918	115.133507581265	33.469779030387
0	7011	117.689809176767	22.530312125791
0	7121	118.884542572823	43.984698883129
0	7138	119.106237645128	37.685472679554
0	8226	139.841443692592	24.707936111327
0	8334	141.577200738565	23.887391561798
0	8376	141.974313156187	56.91204997379
0	8535	144.049469253482	96.763824572314
0	8704	147.168238147935	37.596863394528
0	8779	148.959198767909	30.074656195086
0	9055	153.409853609301	34.303615964173
0	9762	164.254445073041	24.413001380449
0	9795	164.623582784145	114.8374684314
0	10354	176.290891143979	22.881037534678
0	10412	177.133090473406	35.555889734841
0	10497	177.525561331134	33.476092077652
0	10556	178.829628736522	29.870429968613
0	10756	181.913721597573	34.745483449638
0	10790	182.010590751749	40.036277595562
0	12129	205.199712503973	40.945267430932
0	12279	207.901811611783	43.278228827638
0	12636	215.175376789959	36.345748053437
0	12704	216.356793474383	38.831232143249
0	12846	220.490501083405	38.576779485832
0	13072	222.566261270041	46.275370126062
0	13197	223.266991522197	41.256400770448
0	13737	232.691419029868	55.558328556462
0	13873	233.908463384769	26.006651772986
0	14005	237.304255876714	22.128879086755
0	15020	255.33548954407	34.844988460665
0	15370	261.468551006604	38.902289736563
0	16185	274.005596236178	41.31417720631
0	16210	274.081680818277	68.881968314304
0	16261	274.485819634559	40.57735624979
0	16728	281.050409566958	57.783418044761
0	16828	281.815492381057	65.458698906674
0	17252	290.181445027575	34.845955483505
0	17501	295.053076234521	57.748820357807
0	17703	297.15035939206	22.664539757501
0	17804	298.731304020237	24.725707784059
0	18028	301.482514033692	27.400833215415
0	18137	302.552212437214	21.501802870256
0	19085	319.189022629827	29.007577602252
0	19177	320.544080821857	21.81277680162
0	19219	320.697331626625	25.644255392104
0	19287	321.821491394999	60.352940388395
0	19437	324.615132531604	27.464773139544
0	19612	325.85408694454	23.301874507326
0	19762	327.769549915815	45.954057534758
0	20360	337.345871712366	35.863357678674
0	20710	341.727295246649	22.538272616822
0	21135	348.335417317449	26.51392592245
0	21236	349.567760205465	24.952627673861
0	21286	350.223492756996	22.453942841181
0	21768	360.082143062757	34.228056118217
0	21826	360.509313245239	39.965232423382
0	22010	362.715086894541	25.369215182175
0	22110	363.704998652285	43.00766702566
0	22578	372.113459059646	30.386163812997
0	22595	372.212715328787	22.644955123322
0	23137	380.783940543916	30.56044778692
0	23554	388.139303879287	39.803886561838
0	23605	388.34542810036	24.640429448075
0	23638	388.851299135423	28.769156072666
0	23945	392.818337688626	20.605622359839
0	24422	400.340686847683	37.625599953142
0	24547	401.535061795108	29.421602735462
0	24846	406.732213343036	46.222900097797
0	25161	410.600619672157	22.46131579287
0	25691	419.23785222977	30.89242412941
0	26234	430.427771036698	49.643830492782
0	26659	439.99507834855	20.75722611878
0	26777	440.864634782192	39.329572987084
0	26894	442.682773598969	42.342086751286
0	27503	453.547582597131	46.815369254095
0	28017	462.487663877568	22.492585529018
0	28844	475.091899544242	34.22726476205
0	29003	477.671549729826	88.820250594403
0	29045	478.031256100157	85.212918411531
0	29244	481.023734181824	50.595963145126
0	29595	487.036596144923	24.548932267355
0	29754	490.124614824595	47.441841225626
0	29920	493.355675731416	82.755056059259
0	30344	500.134572405902	22.463022676076
0	30712	503.733564861855	50.185982264724
0	30862	505.599188244482	30.50728870024
0	30879	505.671770886511	27.640514786354
0	31519	516.879698643771	35.855964461947
0	31909	524.35262098584	20.619056123985
0	32500	535.841329867895	35.706757461993
0	32609	537.226106091768	47.101491267173
1	183	0.823155992485	0.823155992485
1	1277	17.913600234991	17.090444242506
1	4234	66.582118132676	48.668517897685
1	5497	86.752080486163	20.169962353487
1	8076	136.18555332768	49.433472841517
1	9370	158.118398692409	21.932845364729
1	17369	291.663623174287	133.54522448188
1	19270	321.62017825646	29.956555082173
1	21353	350.897771447899	29.277593191439
1	22252	365.505319725053	14.607548277154
1	23404	385.56018918401	20.054869458957
1	24120	395.932090752693	10.371901568683
1	25649	417.859590569251	21.927499816558
1	26175	428.814739621193	10.955149051942
1	27444	452.604560863955	23.789821242762
1	28458	469.176150362599	16.571589498644
1	29169	479.241392404153	10.065242041554
1	30546	501.966416714712	22.725024310559
1	31561	517.678622474164	15.712205759452
1	33120	546.404098379642	28.725475905478

